* NGSPICE file created from sky130_fd_sc_hd__lpflow_clkbufkapwr_1.ext - technology: sky130A

.subckt sky130_fd_sc_hd__lpflow_clkbufkapwr_1 KAPWR VGND VPWR X A VPB VNB
X0 KAPWR a_75_212# X VPB sky130_fd_pr__pfet_01v8_hvt ad=0.11455 pd=1.08 as=0.2054 ps=2.1 w=0.79 l=0.15
X1 a_75_212# A VGND VNB sky130_fd_pr__nfet_01v8 ad=0.1352 pd=1.56 as=0.0754 ps=0.81 w=0.52 l=0.15
X2 a_75_212# A KAPWR VPB sky130_fd_pr__pfet_01v8_hvt ad=0.2054 pd=2.1 as=0.11455 ps=1.08 w=0.79 l=0.15
X3 VGND a_75_212# X VNB sky130_fd_pr__nfet_01v8 ad=0.0754 pd=0.81 as=0.1352 ps=1.56 w=0.52 l=0.15

C0 X KAPWR 0.075741f
C1 VPWR a_75_212# 0.033656f
C2 VGND a_75_212# 0.10429f
C3 KAPWR A 0.013437f
C4 X VPB 0.012788f
C5 VPB A 0.052491f
C6 KAPWR a_75_212# 0.113973f
C7 X a_75_212# 0.106512f
C8 a_75_212# A 0.177899f
C9 a_75_212# VPB 0.057101f
C10 VPWR KAPWR 0.1756f
C11 VPWR X 0.028088f
C12 VGND KAPWR 0.027221f
C13 VGND X 0.05405f
C14 VGND A 0.018157f
C15 VPWR VPB 0.029804f
C16 VPWR VNB 0.16597f
C17 VGND VNB 0.20733f
C18 KAPWR VNB 0.020391f
C19 X VNB 0.094159f
C20 A VNB 0.164205f
C21 VPB VNB 0.338976f
C22 a_75_212# VNB 0.210264f
.ends

* NGSPICE file created from sky130_fd_sc_hd__lpflow_inputisolatch_1.ext - technology: sky130A

.subckt sky130_fd_sc_hd__lpflow_inputisolatch_1 VGND VPWR VPB VNB SLEEP_B Q D
X0 a_381_369# D VPWR VPB sky130_fd_pr__pfet_01v8_hvt ad=0.09575 pd=0.965 as=0.1664 ps=1.8 w=0.64 l=0.15
X1 a_575_47# a_27_47# a_476_47# VNB sky130_fd_pr__special_nfet_01v8 ad=0.0486 pd=0.63 as=0.0621 ps=0.705 w=0.36 l=0.15
X2 a_476_47# a_27_47# a_381_369# VPB sky130_fd_pr__pfet_01v8_hvt ad=0.0567 pd=0.69 as=0.09575 ps=0.965 w=0.42 l=0.15
X3 a_476_47# a_193_47# a_381_47# VNB sky130_fd_pr__special_nfet_01v8 ad=0.0621 pd=0.705 as=0.066 ps=0.745 w=0.36 l=0.15
X4 VGND a_629_21# a_575_47# VNB sky130_fd_pr__special_nfet_01v8 ad=0.0936 pd=1.24 as=0.0486 ps=0.63 w=0.36 l=0.15
X5 Q a_476_47# VGND VNB sky130_fd_pr__nfet_01v8 ad=0.169 pd=1.82 as=0.08775 ps=0.92 w=0.65 l=0.15
X6 a_193_47# a_27_47# VPWR VPB sky130_fd_pr__pfet_01v8_hvt ad=0.143 pd=1.62 as=0.07425 ps=0.82 w=0.55 l=0.15
X7 a_193_47# a_27_47# VGND VNB sky130_fd_pr__nfet_01v8 ad=0.1092 pd=1.36 as=0.0567 ps=0.69 w=0.42 l=0.15
X8 VPWR a_629_21# a_560_413# VPB sky130_fd_pr__pfet_01v8_hvt ad=0.1134 pd=1.38 as=0.07245 ps=0.765 w=0.42 l=0.15
X9 VGND a_476_47# a_629_21# VNB sky130_fd_pr__nfet_01v8 ad=0.08775 pd=0.92 as=0.169 ps=1.82 w=0.65 l=0.15
X10 Q a_476_47# VPWR VPB sky130_fd_pr__pfet_01v8_hvt ad=0.26 pd=2.52 as=0.135 ps=1.27 w=1 l=0.15
X11 VPWR a_476_47# a_629_21# VPB sky130_fd_pr__pfet_01v8_hvt ad=0.135 pd=1.27 as=0.26 ps=2.52 w=1 l=0.15
X12 a_381_47# D VGND VNB sky130_fd_pr__nfet_01v8 ad=0.066 pd=0.745 as=0.1092 ps=1.36 w=0.42 l=0.15
X13 VPWR SLEEP_B a_27_47# VPB sky130_fd_pr__pfet_01v8_hvt ad=0.07425 pd=0.82 as=0.143 ps=1.62 w=0.55 l=0.15
X14 a_560_413# a_193_47# a_476_47# VPB sky130_fd_pr__pfet_01v8_hvt ad=0.07245 pd=0.765 as=0.0567 ps=0.69 w=0.42 l=0.15
X15 VGND SLEEP_B a_27_47# VNB sky130_fd_pr__nfet_01v8 ad=0.0567 pd=0.69 as=0.1092 ps=1.36 w=0.42 l=0.15

C0 VPWR a_476_47# 0.175819f
C1 SLEEP_B VPWR 0.019063f
C2 VPB VPWR 0.122469f
C3 VPB D 0.048998f
C4 D VPWR 0.014418f
C5 VGND Q 0.052705f
C6 VGND a_27_47# 0.118226f
C7 a_629_21# Q 0.028238f
C8 a_629_21# VGND 0.085125f
C9 a_629_21# a_27_47# 0.059532f
C10 a_193_47# VGND 0.067463f
C11 a_193_47# a_27_47# 0.454189f
C12 a_193_47# a_629_21# 0.035283f
C13 a_476_47# Q 0.026103f
C14 a_476_47# VGND 0.151261f
C15 a_476_47# a_27_47# 0.026927f
C16 SLEEP_B VGND 0.018836f
C17 VPB Q 0.011685f
C18 SLEEP_B a_27_47# 0.190271f
C19 VPB VGND 0.014191f
C20 VPB a_27_47# 0.21754f
C21 a_476_47# a_629_21# 0.242035f
C22 a_476_47# a_193_47# 0.193652f
C23 VPB a_629_21# 0.124448f
C24 VPB a_193_47# 0.081143f
C25 VPWR Q 0.102729f
C26 VPWR VGND 0.109434f
C27 VPWR a_27_47# 0.128093f
C28 D VGND 0.033288f
C29 D a_27_47# 0.12814f
C30 VPWR a_629_21# 0.168022f
C31 VPWR a_193_47# 0.159751f
C32 D a_193_47# 0.081687f
C33 VPB a_476_47# 0.102107f
C34 VPB SLEEP_B 0.075689f
C35 Q VNB 0.084805f
C36 VGND VNB 0.617039f
C37 VPWR VNB 0.489488f
C38 D VNB 0.127168f
C39 SLEEP_B VNB 0.197909f
C40 VPB VNB 1.04774f
C41 a_476_47# VNB 0.279891f
C42 a_629_21# VNB 0.134754f
C43 a_193_47# VNB 0.137495f
C44 a_27_47# VNB 0.366083f
.ends

* NGSPICE file created from sky130_fd_sc_hd__dfrtp_4.ext - technology: sky130A

.subckt sky130_fd_sc_hd__dfrtp_4 VGND VPWR VPB VNB CLK D RESET_B Q
X0 a_805_47# a_761_289# a_639_47# VNB sky130_fd_pr__nfet_01v8 ad=0.0441 pd=0.63 as=0.1401 ps=1.1 w=0.42 l=0.15
X1 a_1217_47# a_27_47# a_1108_47# VNB sky130_fd_pr__special_nfet_01v8 ad=0.0669 pd=0.75 as=0.0711 ps=0.755 w=0.36 l=0.15
X2 a_1283_21# a_1108_47# a_1462_47# VNB sky130_fd_pr__nfet_01v8 ad=0.1092 pd=1.36 as=0.06405 ps=0.725 w=0.42 l=0.15
X3 a_651_413# a_27_47# a_543_47# VPB sky130_fd_pr__pfet_01v8_hvt ad=0.1155 pd=0.97 as=0.07245 ps=0.765 w=0.42 l=0.15
X4 a_1108_47# a_193_47# a_761_289# VNB sky130_fd_pr__special_nfet_01v8 ad=0.0711 pd=0.755 as=0.0999 ps=0.985 w=0.36 l=0.15
X5 VGND RESET_B a_805_47# VNB sky130_fd_pr__nfet_01v8 ad=0.1346 pd=1.15 as=0.0441 ps=0.63 w=0.42 l=0.15
X6 VPWR a_1283_21# Q VPB sky130_fd_pr__pfet_01v8_hvt ad=0.305 pd=2.61 as=0.135 ps=1.27 w=1 l=0.15
X7 VPWR CLK a_27_47# VPB sky130_fd_pr__pfet_01v8_hvt ad=0.0864 pd=0.91 as=0.1664 ps=1.8 w=0.64 l=0.15
X8 a_448_47# D VPWR VPB sky130_fd_pr__pfet_01v8_hvt ad=0.0651 pd=0.73 as=0.1092 ps=1.36 w=0.42 l=0.15
X9 Q a_1283_21# VPWR VPB sky130_fd_pr__pfet_01v8_hvt ad=0.135 pd=1.27 as=0.135 ps=1.27 w=1 l=0.15
X10 VPWR a_1283_21# Q VPB sky130_fd_pr__pfet_01v8_hvt ad=0.135 pd=1.27 as=0.135 ps=1.27 w=1 l=0.15
X11 a_761_289# a_543_47# VGND VNB sky130_fd_pr__nfet_01v8 ad=0.0999 pd=0.985 as=0.1346 ps=1.15 w=0.64 l=0.15
X12 Q a_1283_21# VGND VNB sky130_fd_pr__nfet_01v8 ad=0.08775 pd=0.92 as=0.169 ps=1.82 w=0.65 l=0.15
X13 a_193_47# a_27_47# VGND VNB sky130_fd_pr__nfet_01v8 ad=0.1092 pd=1.36 as=0.0567 ps=0.69 w=0.42 l=0.15
X14 a_1108_47# a_27_47# a_761_289# VPB sky130_fd_pr__pfet_01v8_hvt ad=0.0588 pd=0.7 as=0.12915 ps=1.185 w=0.42 l=0.15
X15 a_1462_47# RESET_B VGND VNB sky130_fd_pr__nfet_01v8 ad=0.06405 pd=0.725 as=0.12495 ps=1.015 w=0.42 l=0.15
X16 a_543_47# a_27_47# a_448_47# VNB sky130_fd_pr__special_nfet_01v8 ad=0.0594 pd=0.69 as=0.066 ps=0.745 w=0.36 l=0.15
X17 a_543_47# a_193_47# a_448_47# VPB sky130_fd_pr__pfet_01v8_hvt ad=0.07245 pd=0.765 as=0.0651 ps=0.73 w=0.42 l=0.15
X18 a_448_47# D VGND VNB sky130_fd_pr__nfet_01v8 ad=0.066 pd=0.745 as=0.2205 ps=1.89 w=0.42 l=0.15
X19 VPWR a_1283_21# a_1270_413# VPB sky130_fd_pr__pfet_01v8_hvt ad=0.0819 pd=0.81 as=0.0567 ps=0.69 w=0.42 l=0.15
X20 VPWR a_1108_47# a_1283_21# VPB sky130_fd_pr__pfet_01v8_hvt ad=0.1134 pd=1.38 as=0.0567 ps=0.69 w=0.42 l=0.15
X21 Q a_1283_21# VPWR VPB sky130_fd_pr__pfet_01v8_hvt ad=0.135 pd=1.27 as=0.26 ps=2.52 w=1 l=0.15
X22 a_1270_413# a_193_47# a_1108_47# VPB sky130_fd_pr__pfet_01v8_hvt ad=0.0567 pd=0.69 as=0.0588 ps=0.7 w=0.42 l=0.15
X23 a_193_47# a_27_47# VPWR VPB sky130_fd_pr__pfet_01v8_hvt ad=0.1664 pd=1.8 as=0.0864 ps=0.91 w=0.64 l=0.15
X24 a_1283_21# RESET_B VPWR VPB sky130_fd_pr__pfet_01v8_hvt ad=0.0567 pd=0.69 as=0.0819 ps=0.81 w=0.42 l=0.15
X25 VGND a_1283_21# Q VNB sky130_fd_pr__nfet_01v8 ad=0.08775 pd=0.92 as=0.08775 ps=0.92 w=0.65 l=0.15
X26 VGND a_1283_21# Q VNB sky130_fd_pr__nfet_01v8 ad=0.182 pd=1.86 as=0.08775 ps=0.92 w=0.65 l=0.15
X27 VPWR a_761_289# a_651_413# VPB sky130_fd_pr__pfet_01v8_hvt ad=0.07035 pd=0.755 as=0.1155 ps=0.97 w=0.42 l=0.15
X28 a_639_47# a_193_47# a_543_47# VNB sky130_fd_pr__special_nfet_01v8 ad=0.1401 pd=1.1 as=0.0594 ps=0.69 w=0.36 l=0.15
X29 VGND a_1283_21# a_1217_47# VNB sky130_fd_pr__nfet_01v8 ad=0.12495 pd=1.015 as=0.0669 ps=0.75 w=0.42 l=0.15
X30 a_651_413# RESET_B VPWR VPB sky130_fd_pr__pfet_01v8_hvt ad=0.1092 pd=1.36 as=0.07035 ps=0.755 w=0.42 l=0.15
X31 VGND CLK a_27_47# VNB sky130_fd_pr__nfet_01v8 ad=0.0567 pd=0.69 as=0.1092 ps=1.36 w=0.42 l=0.15
X32 a_761_289# a_543_47# VPWR VPB sky130_fd_pr__pfet_01v8_hvt ad=0.12915 pd=1.185 as=0.2184 ps=2.2 w=0.84 l=0.15
X33 Q a_1283_21# VGND VNB sky130_fd_pr__nfet_01v8 ad=0.08775 pd=0.92 as=0.08775 ps=0.92 w=0.65 l=0.15

C0 a_651_413# VPB 0.013543f
C1 a_448_47# VPB 0.014137f
C2 a_1283_21# Q 0.366567f
C3 VPB Q 0.017629f
C4 RESET_B a_543_47# 0.153272f
C5 RESET_B a_761_289# 0.166114f
C6 VPWR VGND 0.077885f
C7 a_193_47# VGND 0.063057f
C8 a_27_47# VGND 0.253976f
C9 a_193_47# VPWR 0.396103f
C10 a_27_47# VPWR 0.152296f
C11 a_27_47# a_193_47# 0.906454f
C12 a_1283_21# a_1108_47# 0.234322f
C13 VPB a_1108_47# 0.115484f
C14 VPB CLK 0.069345f
C15 VPB a_1283_21# 0.228333f
C16 VGND a_543_47# 0.122935f
C17 a_651_413# RESET_B 0.012196f
C18 VPWR a_543_47# 0.100285f
C19 VGND a_761_289# 0.073384f
C20 VPWR a_761_289# 0.10497f
C21 a_448_47# D 0.155634f
C22 a_193_47# a_543_47# 0.229804f
C23 a_27_47# a_543_47# 0.115353f
C24 a_193_47# a_761_289# 0.186387f
C25 a_27_47# a_761_289# 0.07009f
C26 a_761_289# a_543_47# 0.209641f
C27 RESET_B a_1108_47# 0.236601f
C28 RESET_B a_1283_21# 0.279587f
C29 RESET_B VPB 0.138482f
C30 a_651_413# VPWR 0.12856f
C31 a_448_47# VGND 0.0661f
C32 VGND Q 0.295568f
C33 D VPB 0.137565f
C34 a_448_47# VPWR 0.068142f
C35 VPWR Q 0.3679f
C36 a_651_413# a_193_47# 0.034619f
C37 a_448_47# a_193_47# 0.064178f
C38 a_448_47# a_27_47# 0.093133f
C39 a_651_413# a_543_47# 0.057222f
C40 a_651_413# a_761_289# 0.097745f
C41 a_448_47# a_543_47# 0.049827f
C42 VGND a_1108_47# 0.14845f
C43 VGND CLK 0.017208f
C44 VGND a_1283_21# 0.298831f
C45 VPWR a_1108_47# 0.172821f
C46 VPWR CLK 0.017406f
C47 VGND VPB 0.012277f
C48 VPWR a_1283_21# 0.234117f
C49 VPWR VPB 0.242331f
C50 a_193_47# a_1108_47# 0.125324f
C51 a_193_47# a_1283_21# 0.042737f
C52 a_27_47# a_1108_47# 0.102355f
C53 a_27_47# CLK 0.233602f
C54 a_193_47# VPB 0.170855f
C55 a_27_47# a_1283_21# 0.043633f
C56 a_27_47# VPB 0.261876f
C57 a_1108_47# a_761_289# 0.051162f
C58 VPB a_543_47# 0.095793f
C59 VPB a_761_289# 0.099418f
C60 RESET_B VGND 0.288033f
C61 D VGND 0.051614f
C62 RESET_B VPWR 0.065186f
C63 D VPWR 0.081188f
C64 a_193_47# RESET_B 0.026903f
C65 a_193_47# D 0.217945f
C66 a_27_47# RESET_B 0.296336f
C67 a_27_47# D 0.132849f
C68 a_639_47# a_543_47# 0.013793f
C69 Q VNB 0.061504f
C70 VGND VNB 1.18004f
C71 VPWR VNB 0.977124f
C72 RESET_B VNB 0.260102f
C73 D VNB 0.159894f
C74 CLK VNB 0.195254f
C75 VPB VNB 2.1109f
C76 a_448_47# VNB 0.013901f
C77 a_1108_47# VNB 0.135428f
C78 a_1283_21# VNB 0.563834f
C79 a_543_47# VNB 0.157869f
C80 a_761_289# VNB 0.120848f
C81 a_193_47# VNB 0.272684f
C82 a_27_47# VNB 0.495705f
.ends

* NGSPICE file created from sky130_fd_sc_hd__nand3b_1.ext - technology: sky130A

.subckt sky130_fd_sc_hd__nand3b_1 VPB VNB VGND VPWR Y B C A_N
X0 Y a_53_93# VPWR VPB sky130_fd_pr__pfet_01v8_hvt ad=0.28 pd=2.56 as=0.1925 ps=1.385 w=1 l=0.15
X1 a_232_47# C VGND VNB sky130_fd_pr__nfet_01v8 ad=0.08775 pd=0.92 as=0.10025 ps=0.985 w=0.65 l=0.15
X2 VPWR B Y VPB sky130_fd_pr__pfet_01v8_hvt ad=0.1925 pd=1.385 as=0.135 ps=1.27 w=1 l=0.15
X3 VPWR A_N a_53_93# VPB sky130_fd_pr__pfet_01v8_hvt ad=0.14575 pd=1.335 as=0.1092 ps=1.36 w=0.42 l=0.15
X4 VGND A_N a_53_93# VNB sky130_fd_pr__nfet_01v8 ad=0.10025 pd=0.985 as=0.1092 ps=1.36 w=0.42 l=0.15
X5 a_316_47# B a_232_47# VNB sky130_fd_pr__nfet_01v8 ad=0.125125 pd=1.035 as=0.08775 ps=0.92 w=0.65 l=0.15
X6 Y a_53_93# a_316_47# VNB sky130_fd_pr__nfet_01v8 ad=0.182 pd=1.86 as=0.125125 ps=1.035 w=0.65 l=0.15
X7 Y C VPWR VPB sky130_fd_pr__pfet_01v8_hvt ad=0.135 pd=1.27 as=0.14575 ps=1.335 w=1 l=0.15

C0 a_53_93# B 0.105505f
C1 VPWR a_53_93# 0.072727f
C2 Y C 0.020663f
C3 A_N C 0.065966f
C4 Y VPB 0.027316f
C5 Y VGND 0.084616f
C6 A_N VPB 0.04217f
C7 VGND A_N 0.010189f
C8 C VPB 0.031831f
C9 VGND C 0.014636f
C10 Y a_53_93# 0.136394f
C11 VPWR B 0.017594f
C12 A_N a_53_93# 0.085383f
C13 a_53_93# C 0.033585f
C14 a_53_93# a_316_47# 0.010598f
C15 a_53_93# VPB 0.054371f
C16 VGND a_53_93# 0.143642f
C17 Y B 0.046906f
C18 Y VPWR 0.357261f
C19 VPWR A_N 0.02091f
C20 B C 0.082225f
C21 VPWR C 0.02217f
C22 B VPB 0.029981f
C23 VGND B 0.012548f
C24 VPWR VPB 0.077773f
C25 VPWR VGND 0.055361f
C26 VGND VNB 0.355372f
C27 Y VNB 0.10206f
C28 A_N VNB 0.125463f
C29 VPWR VNB 0.306818f
C30 B VNB 0.095312f
C31 C VNB 0.100588f
C32 VPB VNB 0.604764f
C33 a_53_93# VNB 0.202165f
.ends

* NGSPICE file created from sky130_fd_sc_hd__o211ai_1.ext - technology: sky130A

.subckt sky130_fd_sc_hd__o211ai_1 VPB VNB VGND VPWR A1 Y C1 B1 A2
X0 a_110_297# A1 VPWR VPB sky130_fd_pr__pfet_01v8_hvt ad=0.105 pd=1.21 as=0.265 ps=2.53 w=1 l=0.15
X1 VGND A1 a_27_47# VNB sky130_fd_pr__nfet_01v8 ad=0.12675 pd=1.04 as=0.17225 ps=1.83 w=0.65 l=0.15
X2 Y A2 a_110_297# VPB sky130_fd_pr__pfet_01v8_hvt ad=0.195 pd=1.39 as=0.105 ps=1.21 w=1 l=0.15
X3 VPWR B1 Y VPB sky130_fd_pr__pfet_01v8_hvt ad=0.195 pd=1.39 as=0.195 ps=1.39 w=1 l=0.15
X4 a_27_47# A2 VGND VNB sky130_fd_pr__nfet_01v8 ad=0.12675 pd=1.04 as=0.12675 ps=1.04 w=0.65 l=0.15
X5 a_326_47# B1 a_27_47# VNB sky130_fd_pr__nfet_01v8 ad=0.06825 pd=0.86 as=0.12675 ps=1.04 w=0.65 l=0.15
X6 Y C1 VPWR VPB sky130_fd_pr__pfet_01v8_hvt ad=0.635 pd=3.27 as=0.195 ps=1.39 w=1 l=0.15
X7 Y C1 a_326_47# VNB sky130_fd_pr__nfet_01v8 ad=0.39325 pd=2.51 as=0.06825 ps=0.86 w=0.65 l=0.15

C0 Y A2 0.068242f
C1 Y B1 0.058586f
C2 A2 VGND 0.018293f
C3 VPB VPWR 0.065014f
C4 Y C1 0.132967f
C5 VGND B1 0.021486f
C6 C1 VGND 0.016045f
C7 A2 a_27_47# 0.045563f
C8 B1 a_27_47# 0.020129f
C9 A1 VGND 0.01599f
C10 A1 a_27_47# 0.044092f
C11 VPB A2 0.033538f
C12 VPB B1 0.034654f
C13 VPWR A2 0.087669f
C14 VPB C1 0.042819f
C15 Y VGND 0.100793f
C16 VPWR B1 0.022673f
C17 VPWR C1 0.017106f
C18 VPB A1 0.034077f
C19 Y a_27_47# 0.032829f
C20 VGND a_27_47# 0.173987f
C21 VPWR A1 0.04837f
C22 A2 B1 0.077303f
C23 VPB Y 0.014362f
C24 Y VPWR 0.235943f
C25 C1 B1 0.108739f
C26 VPWR VGND 0.05511f
C27 A2 A1 0.09342f
C28 VGND VNB 0.342128f
C29 Y VNB 0.103729f
C30 VPWR VNB 0.319183f
C31 C1 VNB 0.128953f
C32 B1 VNB 0.096625f
C33 A2 VNB 0.105185f
C34 A1 VNB 0.142014f
C35 VPB VNB 0.604764f
C36 a_27_47# VNB 0.029967f
.ends

* NGSPICE file created from sky130_fd_sc_hd__nand4bb_1.ext - technology: sky130A

.subckt sky130_fd_sc_hd__nand4bb_1 VNB VPB VPWR VGND A_N Y C D B_N
X0 VGND B_N a_27_93# VNB sky130_fd_pr__nfet_01v8 ad=0.11975 pd=1.045 as=0.1092 ps=1.36 w=0.42 l=0.15
X1 a_496_21# A_N VPWR VPB sky130_fd_pr__pfet_01v8_hvt ad=0.1827 pd=1.71 as=0.1092 ps=1.36 w=0.42 l=0.15
X2 Y a_496_21# a_426_47# VNB sky130_fd_pr__nfet_01v8 ad=0.169 pd=1.82 as=0.11375 ps=1 w=0.65 l=0.15
X3 VPWR a_496_21# Y VPB sky130_fd_pr__pfet_01v8_hvt ad=0.26 pd=2.52 as=0.175 ps=1.35 w=1 l=0.15
X4 a_426_47# a_27_93# a_326_47# VNB sky130_fd_pr__nfet_01v8 ad=0.11375 pd=1 as=0.11375 ps=1 w=0.65 l=0.15
X5 VPWR B_N a_27_93# VPB sky130_fd_pr__pfet_01v8_hvt ad=0.17575 pd=1.395 as=0.1092 ps=1.36 w=0.42 l=0.15
X6 a_496_21# A_N VGND VNB sky130_fd_pr__nfet_01v8 ad=0.1827 pd=1.71 as=0.1092 ps=1.36 w=0.42 l=0.15
X7 Y a_27_93# VPWR VPB sky130_fd_pr__pfet_01v8_hvt ad=0.175 pd=1.35 as=0.175 ps=1.35 w=1 l=0.15
X8 a_218_47# D VGND VNB sky130_fd_pr__nfet_01v8 ad=0.12675 pd=1.04 as=0.11975 ps=1.045 w=0.65 l=0.15
X9 a_326_47# C a_218_47# VNB sky130_fd_pr__nfet_01v8 ad=0.11375 pd=1 as=0.12675 ps=1.04 w=0.65 l=0.15
X10 Y D VPWR VPB sky130_fd_pr__pfet_01v8_hvt ad=0.195 pd=1.39 as=0.17575 ps=1.395 w=1 l=0.15
X11 VPWR C Y VPB sky130_fd_pr__pfet_01v8_hvt ad=0.175 pd=1.35 as=0.195 ps=1.39 w=1 l=0.15

C0 a_496_21# A_N 0.189759f
C1 Y a_27_93# 0.138155f
C2 a_27_93# D 0.04434f
C3 VPWR a_27_93# 0.115154f
C4 a_27_93# B_N 0.107613f
C5 a_496_21# a_27_93# 0.047491f
C6 Y VGND 0.101326f
C7 VGND D 0.017182f
C8 VPWR VGND 0.082326f
C9 VGND B_N 0.012328f
C10 VGND a_496_21# 0.103503f
C11 VPB A_N 0.09848f
C12 VPB C 0.029076f
C13 a_27_93# a_326_47# 0.012617f
C14 VPB a_27_93# 0.047558f
C15 C a_27_93# 0.132075f
C16 Y D 0.028097f
C17 VPWR Y 0.330453f
C18 Y B_N 0.015056f
C19 VPWR D 0.02438f
C20 B_N D 0.064876f
C21 VPWR B_N 0.04603f
C22 Y a_496_21# 0.134024f
C23 VPWR a_496_21# 0.167017f
C24 VPB VGND 0.011577f
C25 VGND A_N 0.02761f
C26 VGND C 0.010604f
C27 a_218_47# a_27_93# 0.013968f
C28 VGND a_27_93# 0.206388f
C29 Y VPB 0.011404f
C30 VPB D 0.032085f
C31 VPWR VPB 0.093109f
C32 VPB B_N 0.096045f
C33 VPB a_496_21# 0.087841f
C34 Y A_N 0.013903f
C35 VPWR A_N 0.015524f
C36 Y C 0.037671f
C37 C D 0.06895f
C38 VPWR C 0.01849f
C39 VGND VNB 0.507586f
C40 Y VNB 0.014283f
C41 VPWR VNB 0.407232f
C42 A_N VNB 0.167615f
C43 C VNB 0.094697f
C44 D VNB 0.100764f
C45 B_N VNB 0.142346f
C46 VPB VNB 0.870552f
C47 a_496_21# VNB 0.23187f
C48 a_27_93# VNB 0.184801f
.ends

* NGSPICE file created from sky130_fd_sc_hd__mux4_2.ext - technology: sky130A

.subckt sky130_fd_sc_hd__mux4_2 VNB VPB VGND VPWR S0 A2 A3 S1 A1 A0 X
X0 a_600_345# S1 VPWR VPB sky130_fd_pr__pfet_01v8_hvt ad=0.1664 pd=1.8 as=0.0864 ps=0.91 w=0.64 l=0.15
X1 a_788_316# S1 a_288_47# VNB sky130_fd_pr__nfet_01v8 ad=0.05775 pd=0.695 as=0.1092 ps=1.36 w=0.42 l=0.15
X2 VPWR A3 a_372_413# VPB sky130_fd_pr__pfet_01v8_hvt ad=0.0864 pd=0.91 as=0.1645 ps=1.33 w=0.64 l=0.15
X3 a_872_316# a_600_345# a_788_316# VNB sky130_fd_pr__nfet_01v8 ad=0.1092 pd=1.36 as=0.05775 ps=0.695 w=0.42 l=0.15
X4 VPWR S0 a_27_47# VPB sky130_fd_pr__pfet_01v8_hvt ad=0.0864 pd=0.91 as=0.1664 ps=1.8 w=0.64 l=0.15
X5 a_1279_413# S0 a_872_316# VPB sky130_fd_pr__pfet_01v8_hvt ad=0.10535 pd=0.995 as=0.0567 ps=0.69 w=0.42 l=0.15
X6 VGND a_788_316# X VNB sky130_fd_pr__nfet_01v8 ad=0.221 pd=1.98 as=0.08775 ps=0.92 w=0.65 l=0.15
X7 a_1060_369# A1 VPWR VPB sky130_fd_pr__pfet_01v8_hvt ad=0.13775 pd=1.165 as=0.1664 ps=1.8 w=0.64 l=0.15
X8 a_872_316# a_27_47# a_1060_369# VPB sky130_fd_pr__pfet_01v8_hvt ad=0.0567 pd=0.69 as=0.13775 ps=1.165 w=0.42 l=0.15
X9 a_193_47# A2 VGND VNB sky130_fd_pr__nfet_01v8 ad=0.066 pd=0.745 as=0.0567 ps=0.69 w=0.42 l=0.15
X10 a_1064_47# A1 VGND VNB sky130_fd_pr__nfet_01v8 ad=0.0786 pd=0.805 as=0.1092 ps=1.36 w=0.42 l=0.15
X11 a_1281_47# a_27_47# a_872_316# VNB sky130_fd_pr__special_nfet_01v8 ad=0.066 pd=0.745 as=0.072 ps=0.76 w=0.36 l=0.15
X12 a_872_316# S1 a_788_316# VPB sky130_fd_pr__pfet_01v8_hvt ad=0.1404 pd=1.6 as=0.0729 ps=0.81 w=0.54 l=0.15
X13 a_872_316# S0 a_1064_47# VNB sky130_fd_pr__special_nfet_01v8 ad=0.072 pd=0.76 as=0.0786 ps=0.805 w=0.36 l=0.15
X14 X a_788_316# VGND VNB sky130_fd_pr__nfet_01v8 ad=0.08775 pd=0.92 as=0.10675 ps=1.005 w=0.65 l=0.15
X15 a_788_316# a_600_345# a_288_47# VPB sky130_fd_pr__pfet_01v8_hvt ad=0.0729 pd=0.81 as=0.1404 ps=1.6 w=0.54 l=0.15
X16 a_372_413# a_27_47# a_288_47# VPB sky130_fd_pr__pfet_01v8_hvt ad=0.1645 pd=1.33 as=0.0567 ps=0.69 w=0.42 l=0.15
X17 VGND A3 a_397_47# VNB sky130_fd_pr__nfet_01v8 ad=0.0819 pd=0.81 as=0.06705 ps=0.75 w=0.42 l=0.15
X18 a_600_345# S1 VGND VNB sky130_fd_pr__nfet_01v8 ad=0.1134 pd=1.38 as=0.0819 ps=0.81 w=0.42 l=0.15
X19 a_193_369# A2 VPWR VPB sky130_fd_pr__pfet_01v8_hvt ad=0.09575 pd=0.965 as=0.0864 ps=0.91 w=0.64 l=0.15
X20 VPWR a_788_316# X VPB sky130_fd_pr__pfet_01v8_hvt ad=0.34 pd=2.68 as=0.135 ps=1.27 w=1 l=0.15
X21 a_288_47# S0 a_193_369# VPB sky130_fd_pr__pfet_01v8_hvt ad=0.0567 pd=0.69 as=0.09575 ps=0.965 w=0.42 l=0.15
X22 VGND A0 a_1281_47# VNB sky130_fd_pr__nfet_01v8 ad=0.10675 pd=1.005 as=0.066 ps=0.745 w=0.42 l=0.15
X23 a_397_47# S0 a_288_47# VNB sky130_fd_pr__special_nfet_01v8 ad=0.06705 pd=0.75 as=0.0711 ps=0.755 w=0.36 l=0.15
X24 X a_788_316# VPWR VPB sky130_fd_pr__pfet_01v8_hvt ad=0.135 pd=1.27 as=0.154 ps=1.335 w=1 l=0.15
X25 a_288_47# a_27_47# a_193_47# VNB sky130_fd_pr__special_nfet_01v8 ad=0.0711 pd=0.755 as=0.066 ps=0.745 w=0.36 l=0.15
X26 VGND S0 a_27_47# VNB sky130_fd_pr__nfet_01v8 ad=0.0567 pd=0.69 as=0.1092 ps=1.36 w=0.42 l=0.15
X27 VPWR A0 a_1279_413# VPB sky130_fd_pr__pfet_01v8_hvt ad=0.154 pd=1.335 as=0.10535 ps=0.995 w=0.64 l=0.15

C0 VGND a_788_316# 0.090723f
C1 a_872_316# a_600_345# 0.01396f
C2 A0 a_788_316# 0.129484f
C3 a_372_413# a_288_47# 0.015786f
C4 VPWR A2 0.013413f
C5 A3 S0 0.063625f
C6 VPWR X 0.191335f
C7 VPWR S0 0.098721f
C8 A1 a_600_345# 0.022412f
C9 S1 a_600_345# 0.234763f
C10 a_872_316# S0 0.076989f
C11 S0 A1 0.060803f
C12 a_288_47# a_600_345# 0.180725f
C13 S0 S1 0.020079f
C14 a_872_316# a_1060_369# 0.013641f
C15 VPB a_600_345# 0.086592f
C16 a_27_47# a_600_345# 0.019664f
C17 VGND a_600_345# 0.077658f
C18 a_288_47# A2 0.017259f
C19 VPB A2 0.042858f
C20 a_288_47# S0 0.069558f
C21 A2 a_27_47# 0.139392f
C22 VPB S0 0.274332f
C23 A2 VGND 0.049946f
C24 S0 a_27_47# 1.10794f
C25 X VGND 0.143747f
C26 S0 VGND 0.235037f
C27 S0 A0 0.053348f
C28 a_1279_413# a_788_316# 0.010194f
C29 VPWR A3 0.018882f
C30 a_788_316# a_600_345# 0.029593f
C31 VPWR a_872_316# 0.126667f
C32 X a_788_316# 0.123704f
C33 S0 a_788_316# 0.077311f
C34 VPWR A1 0.012097f
C35 A3 S1 0.132409f
C36 VPWR S1 0.055891f
C37 a_872_316# A1 0.180303f
C38 a_288_47# A3 0.063337f
C39 A3 VPB 0.061927f
C40 a_288_47# VPWR 0.305256f
C41 A3 a_27_47# 0.012799f
C42 VPWR VPB 0.18178f
C43 A3 VGND 0.041113f
C44 VPWR a_27_47# 0.184651f
C45 VPWR VGND 0.053361f
C46 VPWR A0 0.012367f
C47 VPB a_872_316# 0.032198f
C48 a_872_316# a_27_47# 0.223806f
C49 a_872_316# VGND 0.170157f
C50 a_872_316# A0 0.012055f
C51 S0 a_600_345# 0.032364f
C52 VPB A1 0.078954f
C53 a_288_47# S1 0.031043f
C54 a_27_47# A1 0.018935f
C55 VPB S1 0.20632f
C56 VGND A1 0.049336f
C57 VGND S1 0.035291f
C58 S0 A2 0.169993f
C59 a_288_47# VPB 0.029058f
C60 VPWR a_788_316# 0.453214f
C61 a_288_47# a_27_47# 0.39481f
C62 a_288_47# VGND 0.097387f
C63 VPB a_27_47# 0.173278f
C64 VPB VGND 0.013573f
C65 VGND a_27_47# 0.09816f
C66 VPB A0 0.057378f
C67 a_872_316# a_788_316# 0.169282f
C68 A0 a_27_47# 0.060954f
C69 A0 VGND 0.084706f
C70 a_372_413# VPWR 0.010832f
C71 a_788_316# S1 0.027149f
C72 a_288_47# a_788_316# 0.176428f
C73 VPWR a_600_345# 0.018424f
C74 VPB a_788_316# 0.084205f
C75 a_788_316# a_27_47# 0.202537f
C76 X VNB 0.025732f
C77 VGND VNB 0.969275f
C78 A0 VNB 0.129327f
C79 A1 VNB 0.140821f
C80 S1 VNB 0.29851f
C81 A3 VNB 0.118003f
C82 VPWR VNB 0.799468f
C83 A2 VNB 0.113101f
C84 S0 VNB 0.489648f
C85 VPB VNB 1.66792f
C86 a_872_316# VNB 0.032487f
C87 a_600_345# VNB 0.167097f
C88 a_788_316# VNB 0.219025f
C89 a_288_47# VNB 0.02923f
C90 a_27_47# VNB 0.303925f
.ends

* NGSPICE file created from sky130_fd_sc_hd__nor3_2.ext - technology: sky130A

.subckt sky130_fd_sc_hd__nor3_2 VPB VNB VGND VPWR A B C Y
X0 Y C a_281_297# VPB sky130_fd_pr__pfet_01v8_hvt ad=0.135 pd=1.27 as=0.26 ps=2.52 w=1 l=0.15
X1 a_281_297# B a_27_297# VPB sky130_fd_pr__pfet_01v8_hvt ad=0.135 pd=1.27 as=0.135 ps=1.27 w=1 l=0.15
X2 Y B VGND VNB sky130_fd_pr__nfet_01v8 ad=0.08775 pd=0.92 as=0.08775 ps=0.92 w=0.65 l=0.15
X3 a_27_297# A VPWR VPB sky130_fd_pr__pfet_01v8_hvt ad=0.135 pd=1.27 as=0.135 ps=1.27 w=1 l=0.15
X4 VGND A Y VNB sky130_fd_pr__nfet_01v8 ad=0.08775 pd=0.92 as=0.08775 ps=0.92 w=0.65 l=0.15
X5 Y A VGND VNB sky130_fd_pr__nfet_01v8 ad=0.08775 pd=0.92 as=0.17875 ps=1.85 w=0.65 l=0.15
X6 VGND B Y VNB sky130_fd_pr__nfet_01v8 ad=0.169 pd=1.82 as=0.08775 ps=0.92 w=0.65 l=0.15
X7 VGND C Y VNB sky130_fd_pr__nfet_01v8 ad=0.169 pd=1.82 as=0.08775 ps=0.92 w=0.65 l=0.15
X8 Y C VGND VNB sky130_fd_pr__nfet_01v8 ad=0.08775 pd=0.92 as=0.169 ps=1.82 w=0.65 l=0.15
X9 VPWR A a_27_297# VPB sky130_fd_pr__pfet_01v8_hvt ad=0.135 pd=1.27 as=0.28 ps=2.56 w=1 l=0.15
X10 a_281_297# C Y VPB sky130_fd_pr__pfet_01v8_hvt ad=0.26 pd=2.52 as=0.135 ps=1.27 w=1 l=0.15
X11 a_27_297# B a_281_297# VPB sky130_fd_pr__pfet_01v8_hvt ad=0.28 pd=2.56 as=0.135 ps=1.27 w=1 l=0.15

C0 Y a_281_297# 0.111264f
C1 B VPB 0.059332f
C2 A VPB 0.056239f
C3 a_27_297# a_281_297# 0.161871f
C4 C VPWR 0.018605f
C5 VPWR VPB 0.077026f
C6 B a_281_297# 0.022996f
C7 C VPB 0.067833f
C8 VPWR a_281_297# 0.232009f
C9 Y VGND 0.477898f
C10 C a_281_297# 0.055695f
C11 VPB a_281_297# 0.018188f
C12 a_27_297# Y 0.011348f
C13 B VGND 0.030998f
C14 A VGND 0.056318f
C15 B Y 0.118347f
C16 A Y 0.061458f
C17 B a_27_297# 0.112649f
C18 A a_27_297# 0.105775f
C19 VGND VPWR 0.072894f
C20 Y VPWR 0.017335f
C21 VGND C 0.031166f
C22 Y C 0.167791f
C23 A B 0.069132f
C24 Y VPB 0.013147f
C25 a_27_297# VPWR 0.228211f
C26 a_27_297# C 0.010918f
C27 a_27_297# VPB 0.016361f
C28 B VPWR 0.022934f
C29 A VPWR 0.04397f
C30 B C 0.036601f
C31 VGND VNB 0.483019f
C32 Y VNB 0.075161f
C33 VPWR VNB 0.363175f
C34 C VNB 0.210714f
C35 B VNB 0.184258f
C36 A VNB 0.207334f
C37 VPB VNB 0.781956f
C38 a_281_297# VNB 0.025168f
C39 a_27_297# VNB 0.035975f
.ends

* NGSPICE file created from sky130_fd_sc_hd__a21o_2.ext - technology: sky130A

.subckt sky130_fd_sc_hd__a21o_2 VNB VPB VGND VPWR A2 A1 B1 X
X0 VPWR a_80_199# X VPB sky130_fd_pr__pfet_01v8_hvt ad=0.265 pd=2.53 as=0.14 ps=1.28 w=1 l=0.15
X1 X a_80_199# VPWR VPB sky130_fd_pr__pfet_01v8_hvt ad=0.14 pd=1.28 as=0.265 ps=2.53 w=1 l=0.15
X2 VGND a_80_199# X VNB sky130_fd_pr__nfet_01v8 ad=0.1105 pd=0.99 as=0.091 ps=0.93 w=0.65 l=0.15
X3 a_386_297# A2 VPWR VPB sky130_fd_pr__pfet_01v8_hvt ad=0.26 pd=2.52 as=0.1575 ps=1.315 w=1 l=0.15
X4 X a_80_199# VGND VNB sky130_fd_pr__nfet_01v8 ad=0.091 pd=0.93 as=0.17225 ps=1.83 w=0.65 l=0.15
X5 a_80_199# B1 VGND VNB sky130_fd_pr__nfet_01v8 ad=0.1625 pd=1.15 as=0.1105 ps=0.99 w=0.65 l=0.15
X6 a_386_297# B1 a_80_199# VPB sky130_fd_pr__pfet_01v8_hvt ad=0.14 pd=1.28 as=0.265 ps=2.53 w=1 l=0.15
X7 a_458_47# A1 a_80_199# VNB sky130_fd_pr__nfet_01v8 ad=0.1235 pd=1.03 as=0.1625 ps=1.15 w=0.65 l=0.15
X8 VPWR A1 a_386_297# VPB sky130_fd_pr__pfet_01v8_hvt ad=0.1575 pd=1.315 as=0.14 ps=1.28 w=1 l=0.15
X9 VGND A2 a_458_47# VNB sky130_fd_pr__nfet_01v8 ad=0.17225 pd=1.83 as=0.1235 ps=1.03 w=0.65 l=0.15

C0 A2 VPWR 0.018943f
C1 A2 A1 0.104392f
C2 VPWR A1 0.020369f
C3 a_80_199# B1 0.15204f
C4 a_80_199# VGND 0.131395f
C5 VGND B1 0.015566f
C6 a_386_297# a_80_199# 0.068014f
C7 VPB A2 0.036695f
C8 VPB VPWR 0.081424f
C9 a_386_297# VGND 0.011922f
C10 a_80_199# X 0.178817f
C11 VPB A1 0.029009f
C12 VGND X 0.080574f
C13 a_80_199# VPWR 0.150041f
C14 a_80_199# A1 0.034032f
C15 A2 VGND 0.051922f
C16 VPWR B1 0.016706f
C17 VGND VPWR 0.074512f
C18 A1 B1 0.066922f
C19 VGND A1 0.068348f
C20 a_386_297# A2 0.036695f
C21 a_386_297# VPWR 0.171483f
C22 a_458_47# A1 0.011627f
C23 a_386_297# A1 0.039616f
C24 VPB a_80_199# 0.087824f
C25 VPWR X 0.127834f
C26 VPB B1 0.041674f
C27 VGND VNB 0.428053f
C28 X VNB 0.044067f
C29 VPWR VNB 0.356209f
C30 A2 VNB 0.15339f
C31 A1 VNB 0.107801f
C32 B1 VNB 0.110336f
C33 VPB VNB 0.69336f
C34 a_386_297# VNB 0.029263f
C35 a_80_199# VNB 0.239859f
.ends

* NGSPICE file created from sky130_fd_sc_hd__ebufn_1.ext - technology: sky130A

.subckt sky130_fd_sc_hd__ebufn_1 VNB VPB VPWR VGND Z TE_B A
X0 Z a_27_47# a_383_297# VPB sky130_fd_pr__pfet_01v8_hvt ad=0.315 pd=2.63 as=0.475 ps=1.95 w=1 l=0.15
X1 a_193_369# TE_B VGND VNB sky130_fd_pr__nfet_01v8 ad=0.2583 pd=2.07 as=0.098125 ps=1.005 w=0.42 l=0.15
X2 a_383_297# TE_B VPWR VPB sky130_fd_pr__pfet_01v8_hvt ad=0.475 pd=1.95 as=0.27 ps=2.54 w=1 l=0.15
X3 VPWR A a_27_47# VPB sky130_fd_pr__pfet_01v8_hvt ad=0.0864 pd=0.91 as=0.1664 ps=1.8 w=0.64 l=0.15
X4 a_531_47# a_193_369# VGND VNB sky130_fd_pr__nfet_01v8 ad=0.06825 pd=0.86 as=0.2275 ps=2 w=0.65 l=0.15
X5 Z a_27_47# a_531_47# VNB sky130_fd_pr__nfet_01v8 ad=0.286 pd=2.18 as=0.06825 ps=0.86 w=0.65 l=0.15
X6 a_193_369# TE_B VPWR VPB sky130_fd_pr__pfet_01v8_hvt ad=0.1664 pd=1.8 as=0.0864 ps=0.91 w=0.64 l=0.15
X7 VGND A a_27_47# VNB sky130_fd_pr__nfet_01v8 ad=0.098125 pd=1.005 as=0.1092 ps=1.36 w=0.42 l=0.15

C0 VGND A 0.01737f
C1 a_193_369# VGND 0.030115f
C2 Z VPB 0.029612f
C3 a_193_369# Z 0.104309f
C4 a_27_47# A 0.147601f
C5 a_27_47# VPB 0.055105f
C6 a_193_369# a_27_47# 0.25775f
C7 VPWR A 0.017206f
C8 TE_B A 0.064835f
C9 VPWR VPB 0.082415f
C10 a_193_369# VPWR 0.144946f
C11 TE_B VPB 0.127958f
C12 a_193_369# TE_B 0.142765f
C13 Z VGND 0.101739f
C14 a_383_297# Z 0.050545f
C15 a_27_47# VGND 0.358588f
C16 a_27_47# Z 0.116183f
C17 VGND VPWR 0.070492f
C18 VGND TE_B 0.0199f
C19 Z VPWR 0.243182f
C20 VPB A 0.064652f
C21 a_193_369# VPB 0.041667f
C22 a_27_47# VPWR 0.10592f
C23 a_27_47# TE_B 0.111472f
C24 TE_B VPWR 0.04252f
C25 VGND VNB 0.442579f
C26 Z VNB 0.097664f
C27 VPWR VNB 0.361695f
C28 TE_B VNB 0.22258f
C29 A VNB 0.195718f
C30 VPB VNB 0.781956f
C31 a_193_369# VNB 0.099714f
C32 a_27_47# VNB 0.212475f
.ends

* NGSPICE file created from sky130_fd_sc_hd__o2111a_2.ext - technology: sky130A

.subckt sky130_fd_sc_hd__o2111a_2 VPB VNB VGND VPWR X D1 C1 B1 A2 A1
X0 VPWR a_80_21# X VPB sky130_fd_pr__pfet_01v8_hvt ad=0.365 pd=1.73 as=0.14 ps=1.28 w=1 l=0.15
X1 X a_80_21# VPWR VPB sky130_fd_pr__pfet_01v8_hvt ad=0.14 pd=1.28 as=0.265 ps=2.53 w=1 l=0.15
X2 a_80_21# D1 VPWR VPB sky130_fd_pr__pfet_01v8_hvt ad=0.14 pd=1.28 as=0.365 ps=1.73 w=1 l=0.15
X3 VGND a_80_21# X VNB sky130_fd_pr__nfet_01v8 ad=0.17225 pd=1.83 as=0.091 ps=0.93 w=0.65 l=0.15
X4 VPWR C1 a_80_21# VPB sky130_fd_pr__pfet_01v8_hvt ad=0.195 pd=1.39 as=0.14 ps=1.28 w=1 l=0.15
X5 X a_80_21# VGND VNB sky130_fd_pr__nfet_01v8 ad=0.091 pd=0.93 as=0.17225 ps=1.83 w=0.65 l=0.15
X6 a_80_21# B1 VPWR VPB sky130_fd_pr__pfet_01v8_hvt ad=0.195 pd=1.39 as=0.195 ps=1.39 w=1 l=0.15
X7 a_674_297# A2 a_80_21# VPB sky130_fd_pr__pfet_01v8_hvt ad=0.195 pd=1.39 as=0.195 ps=1.39 w=1 l=0.15
X8 a_386_47# D1 a_80_21# VNB sky130_fd_pr__nfet_01v8 ad=0.06825 pd=0.86 as=0.17225 ps=1.83 w=0.65 l=0.15
X9 VPWR A1 a_674_297# VPB sky130_fd_pr__pfet_01v8_hvt ad=0.265 pd=2.53 as=0.195 ps=1.39 w=1 l=0.15
X10 a_566_47# B1 a_458_47# VNB sky130_fd_pr__nfet_01v8 ad=0.12675 pd=1.04 as=0.12675 ps=1.04 w=0.65 l=0.15
X11 VGND A2 a_566_47# VNB sky130_fd_pr__nfet_01v8 ad=0.12675 pd=1.04 as=0.12675 ps=1.04 w=0.65 l=0.15
X12 a_566_47# A1 VGND VNB sky130_fd_pr__nfet_01v8 ad=0.17225 pd=1.83 as=0.12675 ps=1.04 w=0.65 l=0.15
X13 a_458_47# C1 a_386_47# VNB sky130_fd_pr__nfet_01v8 ad=0.12675 pd=1.04 as=0.06825 ps=0.86 w=0.65 l=0.15

C0 A2 a_566_47# 0.045224f
C1 VGND VPWR 0.106139f
C2 D1 VPB 0.039539f
C3 A2 VPB 0.035689f
C4 VGND a_566_47# 0.17525f
C5 A1 VPWR 0.14498f
C6 A2 a_674_297# 0.017974f
C7 a_80_21# C1 0.10242f
C8 B1 C1 0.083881f
C9 VGND D1 0.016542f
C10 VGND A2 0.019732f
C11 A1 a_566_47# 0.048446f
C12 a_80_21# B1 0.053517f
C13 A1 VPB 0.062872f
C14 A2 A1 0.087542f
C15 VGND A1 0.025113f
C16 a_80_21# X 0.184715f
C17 C1 VPWR 0.020249f
C18 a_80_21# VPWR 0.33127f
C19 B1 VPWR 0.018374f
C20 C1 a_566_47# 0.024734f
C21 B1 a_566_47# 0.022354f
C22 D1 C1 0.115599f
C23 C1 VPB 0.032235f
C24 a_80_21# D1 0.155533f