*SPEF "ieee 1481-1999"
*DESIGN "spm"
*DATE "21:56:57 Sunday October 13, 2024"
*VENDOR "The OpenROAD Project"
*PROGRAM "OpenROAD"
*VERSION "b16bda7e82721d10566ff7e2b68f1ff0be9f9e38"
*DESIGN_FLOW "NAME_SCOPE LOCAL" "PIN_CAP NONE"
*DIVIDER /
*DELIMITER :
*BUS_DELIMITER []
*T_UNIT 1 NS
*C_UNIT 1 PF
*R_UNIT 1 OHM
*L_UNIT 1 HENRY

*NAME_MAP
*3 a[0]
*4 a[10]
*5 a[11]
*6 a[12]
*7 a[13]
*8 a[14]
*9 a[15]
*10 a[16]
*11 a[17]
*12 a[18]
*13 a[19]
*14 a[1]
*15 a[20]
*16 a[21]
*17 a[22]
*18 a[23]
*19 a[24]
*20 a[25]
*21 a[26]
*22 a[27]
*23 a[28]
*24 a[29]
*25 a[2]
*26 a[30]
*27 a[31]
*28 a[3]
*29 a[4]
*30 a[5]
*31 a[6]
*32 a[7]
*33 a[8]
*34 a[9]
*35 clk
*36 rst
*37 x
*38 y
*39 _000_
*40 _001_
*41 _002_
*42 _003_
*43 _004_
*44 _005_
*45 _006_
*46 _007_
*47 _008_
*48 _009_
*49 _010_
*50 _011_
*51 _012_
*52 _013_
*53 _014_
*54 _015_
*55 _016_
*56 _017_
*57 _018_
*58 _019_
*59 _020_
*60 _021_
*61 _022_
*62 _023_
*63 _024_
*64 _025_
*65 _026_
*66 _027_
*67 _028_
*68 _029_
*69 _030_
*70 _031_
*71 _032_
*72 _033_
*73 _034_
*74 _035_
*75 _036_
*76 _037_
*77 _038_
*78 _039_
*79 _040_
*80 _041_
*81 _042_
*82 _043_
*83 _044_
*84 _045_
*85 _046_
*86 _047_
*87 _048_
*88 _049_
*89 _050_
*90 _051_
*91 _052_
*92 _053_
*93 _054_
*94 _055_
*95 _056_
*96 _057_
*97 _058_
*98 _059_
*99 _060_
*100 _061_
*101 _062_
*102 _063_
*103 _064_
*104 _065_
*105 _066_
*106 _067_
*107 _068_
*108 _069_
*109 _070_
*110 _071_
*111 _072_
*112 _073_
*113 _074_
*114 _075_
*115 _076_
*116 _077_
*117 _078_
*118 _079_
*119 _080_
*120 _081_
*121 _082_
*122 _083_
*123 _084_
*124 _085_
*125 _086_
*126 _087_
*127 _088_
*128 _089_
*129 _090_
*130 _091_
*131 _092_
*132 _093_
*133 clknet_0_clk
*134 clknet_3_0__leaf_clk
*135 clknet_3_1__leaf_clk
*136 clknet_3_2__leaf_clk
*137 clknet_3_3__leaf_clk
*138 clknet_3_4__leaf_clk
*139 clknet_3_5__leaf_clk
*140 clknet_3_6__leaf_clk
*141 clknet_3_7__leaf_clk
*142 dsa\[0\]\.last_carry
*143 dsa\[0\]\.last_carry_next
*144 dsa\[0\]\.y_out
*145 dsa\[0\]\.y_out_next
*146 dsa\[10\]\.last_carry
*147 dsa\[10\]\.last_carry_next
*148 dsa\[10\]\.y_in
*149 dsa\[10\]\.y_out
*150 dsa\[10\]\.y_out_next
*151 dsa\[11\]\.last_carry
*152 dsa\[11\]\.last_carry_next
*153 dsa\[11\]\.y_out
*154 dsa\[11\]\.y_out_next
*155 dsa\[12\]\.last_carry
*156 dsa\[12\]\.last_carry_next
*157 dsa\[12\]\.y_out
*158 dsa\[12\]\.y_out_next
*159 dsa\[13\]\.last_carry
*160 dsa\[13\]\.last_carry_next
*161 dsa\[13\]\.y_out
*162 dsa\[13\]\.y_out_next
*163 dsa\[14\]\.last_carry
*164 dsa\[14\]\.last_carry_next
*165 dsa\[14\]\.y_out
*166 dsa\[14\]\.y_out_next
*167 dsa\[15\]\.last_carry
*168 dsa\[15\]\.last_carry_next
*169 dsa\[15\]\.y_out
*170 dsa\[15\]\.y_out_next
*171 dsa\[16\]\.last_carry
*172 dsa\[16\]\.last_carry_next
*173 dsa\[16\]\.y_out
*174 dsa\[16\]\.y_out_next
*175 dsa\[17\]\.last_carry
*176 dsa\[17\]\.last_carry_next
*177 dsa\[17\]\.y_out
*178 dsa\[17\]\.y_out_next
*179 dsa\[18\]\.last_carry
*180 dsa\[18\]\.last_carry_next
*181 dsa\[18\]\.y_out
*182 dsa\[18\]\.y_out_next
*183 dsa\[19\]\.last_carry
*184 dsa\[19\]\.last_carry_next
*185 dsa\[19\]\.y_out
*186 dsa\[19\]\.y_out_next
*187 dsa\[1\]\.last_carry
*188 dsa\[1\]\.last_carry_next
*189 dsa\[1\]\.y_out
*190 dsa\[1\]\.y_out_next
*191 dsa\[20\]\.last_carry
*192 dsa\[20\]\.last_carry_next
*193 dsa\[20\]\.y_out
*194 dsa\[20\]\.y_out_next
*195 dsa\[21\]\.last_carry
*196 dsa\[21\]\.last_carry_next
*197 dsa\[21\]\.y_out
*198 dsa\[21\]\.y_out_next
*199 dsa\[22\]\.last_carry
*200 dsa\[22\]\.last_carry_next
*201 dsa\[22\]\.y_out
*202 dsa\[22\]\.y_out_next
*203 dsa\[23\]\.last_carry
*204 dsa\[23\]\.last_carry_next
*205 dsa\[23\]\.y_out
*206 dsa\[23\]\.y_out_next
*207 dsa\[24\]\.last_carry
*208 dsa\[24\]\.last_carry_next
*209 dsa\[24\]\.y_out
*210 dsa\[24\]\.y_out_next
*211 dsa\[25\]\.last_carry
*212 dsa\[25\]\.last_carry_next
*213 dsa\[25\]\.y_out
*214 dsa\[25\]\.y_out_next
*215 dsa\[26\]\.last_carry
*216 dsa\[26\]\.last_carry_next
*217 dsa\[26\]\.y_out
*218 dsa\[26\]\.y_out_next
*219 dsa\[27\]\.last_carry
*220 dsa\[27\]\.last_carry_next
*221 dsa\[27\]\.y_out
*222 dsa\[27\]\.y_out_next
*223 dsa\[28\]\.last_carry
*224 dsa\[28\]\.last_carry_next
*225 dsa\[28\]\.y_out
*226 dsa\[28\]\.y_out_next
*227 dsa\[29\]\.last_carry
*228 dsa\[29\]\.last_carry_next
*229 dsa\[29\]\.y_out
*230 dsa\[29\]\.y_out_next
*231 dsa\[2\]\.last_carry
*232 dsa\[2\]\.last_carry_next
*233 dsa\[2\]\.y_out
*234 dsa\[2\]\.y_out_next
*235 dsa\[30\]\.last_carry
*236 dsa\[30\]\.last_carry_next
*237 dsa\[30\]\.y_out
*238 dsa\[30\]\.y_out_next
*239 dsa\[31\]\.last_carry
*240 dsa\[31\]\.last_carry_next
*241 dsa\[31\]\.y_out_next
*242 dsa\[3\]\.last_carry
*243 dsa\[3\]\.last_carry_next
*244 dsa\[3\]\.y_out
*245 dsa\[3\]\.y_out_next
*246 dsa\[4\]\.last_carry
*247 dsa\[4\]\.last_carry_next
*248 dsa\[4\]\.y_out
*249 dsa\[4\]\.y_out_next
*250 dsa\[5\]\.last_carry
*251 dsa\[5\]\.last_carry_next
*252 dsa\[5\]\.y_out
*253 dsa\[5\]\.y_out_next
*254 dsa\[6\]\.last_carry
*255 dsa\[6\]\.last_carry_next
*256 dsa\[6\]\.y_out
*257 dsa\[6\]\.y_out_next
*258 dsa\[7\]\.last_carry
*259 dsa\[7\]\.last_carry_next
*260 dsa\[7\]\.y_out
*261 dsa\[7\]\.y_out_next
*262 dsa\[8\]\.last_carry
*263 dsa\[8\]\.last_carry_next
*264 dsa\[8\]\.y_out
*265 dsa\[8\]\.y_out_next
*266 dsa\[9\]\.last_carry
*267 dsa\[9\]\.last_carry_next
*268 dsa\[9\]\.y_out_next
*269 net1
*270 net10
*271 net11
*272 net12
*273 net13
*274 net14
*275 net15
*276 net16
*277 net17
*278 net18
*279 net19
*280 net2
*281 net20
*282 net21
*283 net22
*284 net23
*285 net24
*286 net25
*287 net26
*288 net27
*289 net28
*290 net29
*291 net3
*292 net30
*293 net31
*294 net32
*295 net33
*296 net34
*297 net35
*298 net36
*299 net37
*300 net38
*301 net39
*302 net4
*303 net40
*304 net41
*305 net42
*306 net43
*307 net44
*308 net45
*309 net46
*310 net47
*311 net48
*312 net49
*313 net5
*314 net50
*315 net51
*316 net52
*317 net53
*318 net54
*319 net55
*320 net56
*321 net57
*322 net58
*323 net59
*324 net6
*325 net60
*326 net61
*327 net62
*328 net63
*329 net64
*330 net65
*331 net66
*332 net67
*333 net68
*334 net69
*335 net7
*336 net70
*337 net71
*338 net72
*339 net73
*340 net74
*341 net75
*342 net76
*343 net77
*344 net78
*345 net79
*346 net8
*347 net80
*348 net81
*349 net82
*350 net83
*351 net84
*352 net9
*353 FILLER_0_0_109
*354 FILLER_0_0_113
*355 FILLER_0_0_125
*356 FILLER_0_0_137
*357 FILLER_0_0_141
*358 FILLER_0_0_145
*359 FILLER_0_0_149
*360 FILLER_0_0_15
*361 FILLER_0_0_161
*362 FILLER_0_0_167
*363 FILLER_0_0_169
*364 FILLER_0_0_181
*365 FILLER_0_0_27
*366 FILLER_0_0_29
*367 FILLER_0_0_3
*368 FILLER_0_0_41
*369 FILLER_0_0_53
*370 FILLER_0_0_57
*371 FILLER_0_0_69
*372 FILLER_0_0_81
*373 FILLER_0_0_85
*374 FILLER_0_0_97
*375 FILLER_0_10_106
*376 FILLER_0_10_11
*377 FILLER_0_10_138
*378 FILLER_0_10_141
*379 FILLER_0_10_20
*380 FILLER_0_10_29
*381 FILLER_0_10_3
*382 FILLER_0_10_45
*383 FILLER_0_10_82
*384 FILLER_0_10_94
*385 FILLER_0_11_104
*386 FILLER_0_11_113
*387 FILLER_0_11_134
*388 FILLER_0_11_165
*389 FILLER_0_11_169
*390 FILLER_0_11_181
*391 FILLER_0_11_47
*392 FILLER_0_11_55
*393 FILLER_0_11_57
*394 FILLER_0_11_63
*395 FILLER_0_11_68
*396 FILLER_0_11_80
*397 FILLER_0_11_92
*398 FILLER_0_12_109
*399 FILLER_0_12_11
*400 FILLER_0_12_124
*401 FILLER_0_12_136
*402 FILLER_0_12_141
*403 FILLER_0_12_169
*404 FILLER_0_12_181
*405 FILLER_0_12_22
*406 FILLER_0_12_29
*407 FILLER_0_12_3
*408 FILLER_0_12_72
*409 FILLER_0_12_93
*410 FILLER_0_13_113
*411 FILLER_0_13_121
*412 FILLER_0_13_142
*413 FILLER_0_13_148
*414 FILLER_0_13_15
*415 FILLER_0_13_163
*416 FILLER_0_13_167
*417 FILLER_0_13_169
*418 FILLER_0_13_181
*419 FILLER_0_13_28
*420 FILLER_0_13_3
*421 FILLER_0_13_36
*422 FILLER_0_13_49
*423 FILLER_0_13_55
*424 FILLER_0_13_57
*425 FILLER_0_13_65
*426 FILLER_0_14_102
*427 FILLER_0_14_128
*428 FILLER_0_14_144
*429 FILLER_0_14_27
*430 FILLER_0_14_64
*431 FILLER_0_14_74
*432 FILLER_0_14_82
*433 FILLER_0_14_94
*434 FILLER_0_15_105
*435 FILLER_0_15_111
*436 FILLER_0_15_113
*437 FILLER_0_15_121
*438 FILLER_0_15_130
*439 FILLER_0_15_15
*440 FILLER_0_15_169
*441 FILLER_0_15_181
*442 FILLER_0_15_27
*443 FILLER_0_15_3
*444 FILLER_0_15_39
*445 FILLER_0_15_57
*446 FILLER_0_15_71
*447 FILLER_0_15_83
*448 FILLER_0_15_95
*449 FILLER_0_16_118
*450 FILLER_0_16_126
*451 FILLER_0_16_134
*452 FILLER_0_16_141
*453 FILLER_0_16_15
*454 FILLER_0_16_153
*455 FILLER_0_16_166
*456 FILLER_0_16_178
*457 FILLER_0_16_182
*458 FILLER_0_16_27
*459 FILLER_0_16_29
*460 FILLER_0_16_3
*461 FILLER_0_16_50
*462 FILLER_0_16_58
*463 FILLER_0_16_79
*464 FILLER_0_16_83
*465 FILLER_0_16_85
*466 FILLER_0_16_90
*467 FILLER_0_17_104
*468 FILLER_0_17_11
*469 FILLER_0_17_119
*470 FILLER_0_17_131
*471 FILLER_0_17_152
*472 FILLER_0_17_164
*473 FILLER_0_17_169
*474 FILLER_0_17_177
*475 FILLER_0_17_21
*476 FILLER_0_17_3
*477 FILLER_0_17_50
*478 FILLER_0_17_57
*479 FILLER_0_17_69
*480 FILLER_0_18_113
*481 FILLER_0_18_132
*482 FILLER_0_18_141
*483 FILLER_0_18_149
*484 FILLER_0_18_161
*485 FILLER_0_18_177
*486 FILLER_0_18_27
*487 FILLER_0_18_40
*488 FILLER_0_18_66
*489 FILLER_0_18_78
*490 FILLER_0_18_85
*491 FILLER_0_19_110
*492 FILLER_0_19_137
*493 FILLER_0_19_15
*494 FILLER_0_19_167
*495 FILLER_0_19_22
*496 FILLER_0_19_3
*497 FILLER_0_19_34
*498 FILLER_0_19_46
*499 FILLER_0_19_54
*500 FILLER_0_19_57
*501 FILLER_0_19_69
*502 FILLER_0_19_81
*503 FILLER_0_19_93
*504 FILLER_0_19_98
*505 FILLER_0_1_105
*506 FILLER_0_1_111
*507 FILLER_0_1_113
*508 FILLER_0_1_125
*509 FILLER_0_1_137
*510 FILLER_0_1_149
*511 FILLER_0_1_15
*512 FILLER_0_1_161
*513 FILLER_0_1_167
*514 FILLER_0_1_169
*515 FILLER_0_1_181
*516 FILLER_0_1_27
*517 FILLER_0_1_3
*518 FILLER_0_1_39
*519 FILLER_0_1_51
*520 FILLER_0_1_55
*521 FILLER_0_1_57
*522 FILLER_0_1_69
*523 FILLER_0_1_81
*524 FILLER_0_1_93
*525 FILLER_0_20_104
*526 FILLER_0_20_116
*527 FILLER_0_20_137
*528 FILLER_0_20_141
*529 FILLER_0_20_15
*530 FILLER_0_20_153
*531 FILLER_0_20_161
*532 FILLER_0_20_23
*533 FILLER_0_20_27
*534 FILLER_0_20_3
*535 FILLER_0_20_36
*536 FILLER_0_20_48
*537 FILLER_0_20_54
*538 FILLER_0_20_76
*539 FILLER_0_20_85
*540 FILLER_0_21_108
*541 FILLER_0_21_113
*542 FILLER_0_21_124
*543 FILLER_0_21_156
*544 FILLER_0_21_169
*545 FILLER_0_21_181
*546 FILLER_0_21_31
*547 FILLER_0_21_52
*548 FILLER_0_21_57
*549 FILLER_0_21_63
*550 FILLER_0_21_71
*551 FILLER_0_22_110
*552 FILLER_0_22_116
*553 FILLER_0_22_137
*554 FILLER_0_22_141
*555 FILLER_0_22_15
*556 FILLER_0_22_174
*557 FILLER_0_22_182
*558 FILLER_0_22_24
*559 FILLER_0_22_29
*560 FILLER_0_22_3
*561 FILLER_0_22_57
*562 FILLER_0_22_65
*563 FILLER_0_22_77
*564 FILLER_0_22_83
*565 FILLER_0_22_85
*566 FILLER_0_22_89
*567 FILLER_0_23_15
*568 FILLER_0_23_153
*569 FILLER_0_23_3
*570 FILLER_0_23_46
*571 FILLER_0_23_63
*572 FILLER_0_23_84
*573 FILLER_0_23_96
*574 FILLER_0_24_105
*575 FILLER_0_24_137
*576 FILLER_0_24_141
*577 FILLER_0_24_23
*578 FILLER_0_24_27
*579 FILLER_0_24_29
*580 FILLER_0_24_35
*581 FILLER_0_24_63
*582 FILLER_0_25_113
*583 FILLER_0_25_119
*584 FILLER_0_25_127
*585 FILLER_0_25_136
*586 FILLER_0_25_148
*587 FILLER_0_25_160
*588 FILLER_0_25_181
*589 FILLER_0_25_33
*590 FILLER_0_25_45
*591 FILLER_0_25_53
*592 FILLER_0_25_57
*593 FILLER_0_25_88
*594 FILLER_0_26_104
*595 FILLER_0_26_110
*596 FILLER_0_26_119
*597 FILLER_0_26_141
*598 FILLER_0_26_151
*599 FILLER_0_26_23
*600 FILLER_0_26_27
*601 FILLER_0_26_29
*602 FILLER_0_26_3
*603 FILLER_0_26_37
*604 FILLER_0_26_45
*605 FILLER_0_26_56
*606 FILLER_0_26_7
*607 FILLER_0_26_75
*608 FILLER_0_26_83
*609 FILLER_0_26_85
*610 FILLER_0_26_96
*611 FILLER_0_27_109
*612 FILLER_0_27_11
*613 FILLER_0_27_113
*614 FILLER_0_27_125
*615 FILLER_0_27_137
*616 FILLER_0_27_149
*617 FILLER_0_27_15
*618 FILLER_0_27_161
*619 FILLER_0_27_167
*620 FILLER_0_27_172
*621 FILLER_0_27_180
*622 FILLER_0_27_27
*623 FILLER_0_27_3
*624 FILLER_0_27_39
*625 FILLER_0_27_51
*626 FILLER_0_27_55
*627 FILLER_0_27_65
*628 FILLER_0_27_77
*629 FILLER_0_27_89
*630 FILLER_0_27_97
*631 FILLER_0_28_112
*632 FILLER_0_28_135
*633 FILLER_0_28_139
*634 FILLER_0_28_141
*635 FILLER_0_28_159
*636 FILLER_0_28_16
*637 FILLER_0_28_181
*638 FILLER_0_28_25
*639 FILLER_0_28_29
*640 FILLER_0_28_3
*641 FILLER_0_28_45
*642 FILLER_0_28_7
*643 FILLER_0_28_70
*644 FILLER_0_28_91
*645 FILLER_0_29_111
*646 FILLER_0_29_113
*647 FILLER_0_29_135
*648 FILLER_0_29_163
*649 FILLER_0_29_167
*650 FILLER_0_29_169
*651 FILLER_0_29_23
*652 FILLER_0_29_45
*653 FILLER_0_29_51
*654 FILLER_0_29_67
*655 FILLER_0_29_88
*656 FILLER_0_2_109
*657 FILLER_0_2_121
*658 FILLER_0_2_133
*659 FILLER_0_2_139
*660 FILLER_0_2_141
*661 FILLER_0_2_15
*662 FILLER_0_2_153
*663 FILLER_0_2_165
*664 FILLER_0_2_177
*665 FILLER_0_2_27
*666 FILLER_0_2_29
*667 FILLER_0_2_3
*668 FILLER_0_2_41
*669 FILLER_0_2_53
*670 FILLER_0_2_65
*671 FILLER_0_2_77
*672 FILLER_0_2_83
*673 FILLER_0_2_85
*674 FILLER_0_2_97
*675 FILLER_0_30_111
*676 FILLER_0_30_113
*677 FILLER_0_30_117
*678 FILLER_0_30_123
*679 FILLER_0_30_136
*680 FILLER_0_30_147
*681 FILLER_0_30_159
*682 FILLER_0_30_172
*683 FILLER_0_30_27
*684 FILLER_0_30_29
*685 FILLER_0_30_33
*686 FILLER_0_30_40
*687 FILLER_0_30_51
*688 FILLER_0_30_55
*689 FILLER_0_30_63
*690 FILLER_0_30_69
*691 FILLER_0_30_75
*692 FILLER_0_30_83
*693 FILLER_0_30_88
*694 FILLER_0_30_9
*695 FILLER_0_30_93
*696 FILLER_0_3_105
*697 FILLER_0_3_111
*698 FILLER_0_3_113
*699 FILLER_0_3_125
*700 FILLER_0_3_137
*701 FILLER_0_3_149
*702 FILLER_0_3_15
*703 FILLER_0_3_161
*704 FILLER_0_3_167
*705 FILLER_0_3_169
*706 FILLER_0_3_181
*707 FILLER_0_3_27
*708 FILLER_0_3_3
*709 FILLER_0_3_39
*710 FILLER_0_3_51
*711 FILLER_0_3_55
*712 FILLER_0_3_57
*713 FILLER_0_3_69
*714 FILLER_0_3_81
*715 FILLER_0_3_93
*716 FILLER_0_4_109
*717 FILLER_0_4_121
*718 FILLER_0_4_133
*719 FILLER_0_4_139
*720 FILLER_0_4_141
*721 FILLER_0_4_15
*722 FILLER_0_4_153
*723 FILLER_0_4_165
*724 FILLER_0_4_177
*725 FILLER_0_4_27
*726 FILLER_0_4_29
*727 FILLER_0_4_3
*728 FILLER_0_4_41
*729 FILLER_0_4_53
*730 FILLER_0_4_61
*731 FILLER_0_4_70
*732 FILLER_0_4_82
*733 FILLER_0_4_85
*734 FILLER_0_4_97
*735 FILLER_0_5_109
*736 FILLER_0_5_113
*737 FILLER_0_5_134
*738 FILLER_0_5_146
*739 FILLER_0_5_158
*740 FILLER_0_5_163
*741 FILLER_0_5_167
*742 FILLER_0_5_169
*743 FILLER_0_5_181
*744 FILLER_0_5_23
*745 FILLER_0_5_35
*746 FILLER_0_5_47
*747 FILLER_0_5_55
*748 FILLER_0_5_81
*749 FILLER_0_6_121
*750 FILLER_0_6_139
*751 FILLER_0_6_141
*752 FILLER_0_6_15
*753 FILLER_0_6_24
*754 FILLER_0_6_36
*755 FILLER_0_6_7
*756 FILLER_0_6_80
*757 FILLER_0_6_93
*758 FILLER_0_7_105
*759 FILLER_0_7_111
*760 FILLER_0_7_113
*761 FILLER_0_7_121
*762 FILLER_0_7_140
*763 FILLER_0_7_49
*764 FILLER_0_7_55
*765 FILLER_0_7_57
*766 FILLER_0_7_65
*767 FILLER_0_7_69
*768 FILLER_0_7_81
*769 FILLER_0_7_93
*770 FILLER_0_8_109
*771 FILLER_0_8_121
*772 FILLER_0_8_129
*773 FILLER_0_8_135
*774 FILLER_0_8_139
*775 FILLER_0_8_141
*776 FILLER_0_8_149
*777 FILLER_0_8_15
*778 FILLER_0_8_155
*779 FILLER_0_8_23
*780 FILLER_0_8_27
*781 FILLER_0_8_29
*782 FILLER_0_8_3
*783 FILLER_0_8_39
*784 FILLER_0_8_62
*785 FILLER_0_8_74
*786 FILLER_0_8_82
*787 FILLER_0_8_93
*788 FILLER_0_9_113
*789 FILLER_0_9_134
*790 FILLER_0_9_146
*791 FILLER_0_9_15
*792 FILLER_0_9_154
*793 FILLER_0_9_163
*794 FILLER_0_9_167
*795 FILLER_0_9_169
*796 FILLER_0_9_181
*797 FILLER_0_9_27
*798 FILLER_0_9_3
*799 FILLER_0_9_39
*800 FILLER_0_9_57
*801 FILLER_0_9_65
*802 FILLER_0_9_91
*803 PHY_EDGE_ROW_0_Left_31
*804 PHY_EDGE_ROW_0_Right_0
*805 PHY_EDGE_ROW_10_Left_41
*806 PHY_EDGE_ROW_10_Right_10
*807 PHY_EDGE_ROW_11_Left_42
*808 PHY_EDGE_ROW_11_Right_11
*809 PHY_EDGE_ROW_12_Left_43
*810 PHY_EDGE_ROW_12_Right_12
*811 PHY_EDGE_ROW_13_Left_44
*812 PHY_EDGE_ROW_13_Right_13
*813 PHY_EDGE_ROW_14_Left_45
*814 PHY_EDGE_ROW_14_Right_14
*815 PHY_EDGE_ROW_15_Left_46
*816 PHY_EDGE_ROW_15_Right_15
*817 PHY_EDGE_ROW_16_Left_47
*818 PHY_EDGE_ROW_16_Right_16
*819 PHY_EDGE_ROW_17_Left_48
*820 PHY_EDGE_ROW_17_Right_17
*821 PHY_EDGE_ROW_18_Left_49
*822 PHY_EDGE_ROW_18_Right_18
*823 PHY_EDGE_ROW_19_Left_50
*824 PHY_EDGE_ROW_19_Right_19
*825 PHY_EDGE_ROW_1_Left_32
*826 PHY_EDGE_ROW_1_Right_1
*827 PHY_EDGE_ROW_20_Left_51
*828 PHY_EDGE_ROW_20_Right_20
*829 PHY_EDGE_ROW_21_Left_52
*830 PHY_EDGE_ROW_21_Right_21
*831 PHY_EDGE_ROW_22_Left_53
*832 PHY_EDGE_ROW_22_Right_22
*833 PHY_EDGE_ROW_23_Left_54
*834 PHY_EDGE_ROW_23_Right_23
*835 PHY_EDGE_ROW_24_Left_55
*836 PHY_EDGE_ROW_24_Right_24
*837 PHY_EDGE_ROW_25_Left_56
*838 PHY_EDGE_ROW_25_Right_25
*839 PHY_EDGE_ROW_26_Left_57
*840 PHY_EDGE_ROW_26_Right_26
*841 PHY_EDGE_ROW_27_Left_58
*842 PHY_EDGE_ROW_27_Right_27
*843 PHY_EDGE_ROW_28_Left_59
*844 PHY_EDGE_ROW_28_Right_28
*845 PHY_EDGE_ROW_29_Left_60
*846 PHY_EDGE_ROW_29_Right_29
*847 PHY_EDGE_ROW_2_Left_33
*848 PHY_EDGE_ROW_2_Right_2
*849 PHY_EDGE_ROW_30_Left_61
*850 PHY_EDGE_ROW_30_Right_30
*851 PHY_EDGE_ROW_3_Left_34
*852 PHY_EDGE_ROW_3_Right_3
*853 PHY_EDGE_ROW_4_Left_35
*854 PHY_EDGE_ROW_4_Right_4
*855 PHY_EDGE_ROW_5_Left_36
*856 PHY_EDGE_ROW_5_Right_5
*857 PHY_EDGE_ROW_6_Left_37
*858 PHY_EDGE_ROW_6_Right_6
*859 PHY_EDGE_ROW_7_Left_38
*860 PHY_EDGE_ROW_7_Right_7
*861 PHY_EDGE_ROW_8_Left_39
*862 PHY_EDGE_ROW_8_Right_8
*863 PHY_EDGE_ROW_9_Left_40
*864 PHY_EDGE_ROW_9_Right_9
*865 TAP_TAPCELL_ROW_0_62
*866 TAP_TAPCELL_ROW_0_63
*867 TAP_TAPCELL_ROW_0_64
*868 TAP_TAPCELL_ROW_0_65
*869 TAP_TAPCELL_ROW_0_66
*870 TAP_TAPCELL_ROW_0_67
*871 TAP_TAPCELL_ROW_10_95
*872 TAP_TAPCELL_ROW_10_96
*873 TAP_TAPCELL_ROW_10_97
*874 TAP_TAPCELL_ROW_11_100
*875 TAP_TAPCELL_ROW_11_98
*876 TAP_TAPCELL_ROW_11_99
*877 TAP_TAPCELL_ROW_12_101
*878 TAP_TAPCELL_ROW_12_102
*879 TAP_TAPCELL_ROW_12_103
*880 TAP_TAPCELL_ROW_13_104
*881 TAP_TAPCELL_ROW_13_105
*882 TAP_TAPCELL_ROW_13_106
*883 TAP_TAPCELL_ROW_14_107
*884 TAP_TAPCELL_ROW_14_108
*885 TAP_TAPCELL_ROW_14_109
*886 TAP_TAPCELL_ROW_15_110
*887 TAP_TAPCELL_ROW_15_111
*888 TAP_TAPCELL_ROW_15_112
*889 TAP_TAPCELL_ROW_16_113
*890 TAP_TAPCELL_ROW_16_114
*891 TAP_TAPCELL_ROW_16_115
*892 TAP_TAPCELL_ROW_17_116
*893 TAP_TAPCELL_ROW_17_117
*894 TAP_TAPCELL_ROW_17_118
*895 TAP_TAPCELL_ROW_18_119
*896 TAP_TAPCELL_ROW_18_120
*897 TAP_TAPCELL_ROW_18_121
*898 TAP_TAPCELL_ROW_19_122
*899 TAP_TAPCELL_ROW_19_123
*900 TAP_TAPCELL_ROW_19_124
*901 TAP_TAPCELL_ROW_1_68
*902 TAP_TAPCELL_ROW_1_69
*903 TAP_TAPCELL_ROW_1_70
*904 TAP_TAPCELL_ROW_20_125
*905 TAP_TAPCELL_ROW_20_126
*906 TAP_TAPCELL_ROW_20_127
*907 TAP_TAPCELL_ROW_21_128
*908 TAP_TAPCELL_ROW_21_129
*909 TAP_TAPCELL_ROW_21_130
*910 TAP_TAPCELL_ROW_22_131
*911 TAP_TAPCELL_ROW_22_132
*912 TAP_TAPCELL_ROW_22_133
*913 TAP_TAPCELL_ROW_23_134
*914 TAP_TAPCELL_ROW_23_135
*915 TAP_TAPCELL_ROW_23_136
*916 TAP_TAPCELL_ROW_24_137
*917 TAP_TAPCELL_ROW_24_138
*918 TAP_TAPCELL_ROW_24_139
*919 TAP_TAPCELL_ROW_25_140
*920 TAP_TAPCELL_ROW_25_141
*921 TAP_TAPCELL_ROW_25_142
*922 TAP_TAPCELL_ROW_26_143
*923 TAP_TAPCELL_ROW_26_144
*924 TAP_TAPCELL_ROW_26_145
*925 TAP_TAPCELL_ROW_27_146
*926 TAP_TAPCELL_ROW_27_147
*927 TAP_TAPCELL_ROW_27_148
*928 TAP_TAPCELL_ROW_28_149
*929 TAP_TAPCELL_ROW_28_150
*930 TAP_TAPCELL_ROW_28_151
*931 TAP_TAPCELL_ROW_29_152
*932 TAP_TAPCELL_ROW_29_153
*933 TAP_TAPCELL_ROW_29_154
*934 TAP_TAPCELL_ROW_2_71
*935 TAP_TAPCELL_ROW_2_72
*936 TAP_TAPCELL_ROW_2_73
*937 TAP_TAPCELL_ROW_30_155
*938 TAP_TAPCELL_ROW_30_156
*939 TAP_TAPCELL_ROW_30_157
*940 TAP_TAPCELL_ROW_30_158
*941 TAP_TAPCELL_ROW_30_159
*942 TAP_TAPCELL_ROW_30_160
*943 TAP_TAPCELL_ROW_3_74
*944 TAP_TAPCELL_ROW_3_75
*945 TAP_TAPCELL_ROW_3_76
*946 TAP_TAPCELL_ROW_4_77
*947 TAP_TAPCELL_ROW_4_78
*948 TAP_TAPCELL_ROW_4_79
*949 TAP_TAPCELL_ROW_5_80
*950 TAP_TAPCELL_ROW_5_81
*951 TAP_TAPCELL_ROW_5_82
*952 TAP_TAPCELL_ROW_6_83
*953 TAP_TAPCELL_ROW_6_84
*954 TAP_TAPCELL_ROW_6_85
*955 TAP_TAPCELL_ROW_7_86
*956 TAP_TAPCELL_ROW_7_87
*957 TAP_TAPCELL_ROW_7_88
*958 TAP_TAPCELL_ROW_8_89
*959 TAP_TAPCELL_ROW_8_90
*960 TAP_TAPCELL_ROW_8_91
*961 TAP_TAPCELL_ROW_9_92
*962 TAP_TAPCELL_ROW_9_93
*963 TAP_TAPCELL_ROW_9_94
*964 _094_
*965 _095_
*966 _096_
*967 _097_
*968 _098_
*969 _099_
*970 _100_
*971 _101_
*972 _102_
*973 _103_
*974 _104_
*975 _105_
*976 _106_
*977 _107_
*978 _108_
*979 _109_
*980 _110_
*981 _111_
*982 _112_
*983 _113_
*984 _114_
*985 _115_
*986 _116_
*987 _117_
*988 _118_
*989 _119_
*990 _120_
*991 _121_
*992 _122_
*993 _123_
*994 _124_
*995 _125_
*996 _126_
*997 _127_
*998 _128_
*999 _129_
*1000 _130_
*1001 _131_
*1002 _132_
*1003 _133_
*1004 _134_
*1005 _135_
*1006 _136_
*1007 _137_
*1008 _138_
*1009 _139_
*1010 _140_
*1011 _141_
*1012 _142_
*1013 _143_
*1014 _144_
*1015 _145_
*1016 _146_
*1017 _147_
*1018 _148_
*1019 _149_
*1020 _150_
*1021 _151_
*1022 _152_
*1023 _153_
*1024 _154_
*1025 _155_
*1026 _156_
*1027 _157_
*1028 _158_
*1029 _159_
*1030 _160_
*1031 _161_
*1032 _162_
*1033 _163_
*1034 _164_
*1035 _165_
*1036 _166_
*1037 _167_
*1038 _168_
*1039 _169_
*1040 _170_
*1041 _171_
*1042 _172_
*1043 _173_
*1044 _174_
*1045 _175_
*1046 _176_
*1047 _177_
*1048 _178_
*1049 _179_
*1050 _180_
*1051 _181_
*1052 _182_
*1053 _183_
*1054 _184_
*1055 _185_
*1056 _186_
*1057 _187_
*1058 _188_
*1059 _189_
*1060 _190_
*1061 _191_
*1062 _192_
*1063 _193_
*1064 _194_
*1065 _195_
*1066 _196_
*1067 _197_
*1068 _198_
*1069 _199_
*1070 _200_
*1071 _201_
*1072 _202_
*1073 _203_
*1074 _204_
*1075 _205_
*1076 _206_
*1077 _207_
*1078 _208_
*1079 _209_
*1080 _210_
*1081 _211_
*1082 _212_
*1083 _213_
*1084 _214_
*1085 _215_
*1086 _216_
*1087 _217_
*1088 _218_
*1089 _219_
*1090 _220_
*1091 _221_
*1092 _222_
*1093 _223_
*1094 _224_
*1095 _225_
*1096 _226_
*1097 _227_
*1098 _228_
*1099 _229_
*1100 _230_
*1101 _231_
*1102 _232_
*1103 _233_
*1104 _234_
*1105 _235_
*1106 _236_
*1107 _237_
*1108 _238_
*1109 _239_
*1110 _240_
*1111 _241_
*1112 _242_
*1113 _243_
*1114 _244_
*1115 _245_
*1116 _246_
*1117 _247_
*1118 _248_
*1119 _249_
*1120 _250_
*1121 _251_
*1122 _252_
*1123 _253_
*1124 _254_
*1125 _255_
*1126 _256_
*1127 _257_
*1128 _258_
*1129 _259_
*1130 _260_
*1131 _261_
*1132 _262_
*1133 _263_
*1134 _264_
*1135 _265_
*1136 _266_
*1137 _267_
*1138 _268_
*1139 _269_
*1140 _270_
*1141 _271_
*1142 _272_
*1143 _273_
*1144 _274_
*1145 _275_
*1146 _276_
*1147 _277_
*1148 _278_
*1149 _279_
*1150 _280_
*1151 _281_
*1152 _282_
*1153 _283_
*1154 _284_
*1155 _285_
*1156 _286_
*1157 _287_
*1158 _288_
*1159 _289_
*1160 _290_
*1161 _291_
*1162 _292_
*1163 _293_
*1164 _294_
*1165 _295_
*1166 _296_
*1167 _297_
*1168 _298_
*1169 _299_
*1170 _300_
*1171 _301_
*1172 _302_
*1173 _303_
*1174 _304_
*1175 _305_
*1176 _306_
*1177 _307_
*1178 _308_
*1179 _309_
*1180 _310_
*1181 _311_
*1182 _312_
*1183 _313_
*1184 _314_
*1185 _315_
*1186 clkbuf_0_clk
*1187 clkbuf_3_0__f_clk
*1188 clkbuf_3_1__f_clk
*1189 clkbuf_3_2__f_clk
*1190 clkbuf_3_3__f_clk
*1191 clkbuf_3_4__f_clk
*1192 clkbuf_3_5__f_clk
*1193 clkbuf_3_6__f_clk
*1194 clkbuf_3_7__f_clk
*1195 clkload0
*1196 clkload1
*1197 clkload2
*1198 clkload3
*1199 fanout36
*1200 fanout37
*1201 fanout38
*1202 fanout39
*1203 fanout40
*1204 fanout41
*1205 fanout42
*1206 fanout43
*1207 fanout44
*1208 fanout45
*1209 fanout46
*1210 fanout47
*1211 fanout48
*1212 fanout49
*1213 fanout50
*1214 fanout51
*1215 fanout52
*1216 hold1
*1217 hold10
*1218 hold11
*1219 hold12
*1220 hold13
*1221 hold14
*1222 hold15
*1223 hold16
*1224 hold17
*1225 hold18
*1226 hold19
*1227 hold2
*1228 hold20
*1229 hold21
*1230 hold22
*1231 hold23
*1232 hold24
*1233 hold25
*1234 hold26
*1235 hold27
*1236 hold28
*1237 hold29
*1238 hold3
*1239 hold30
*1240 hold31
*1241 hold32
*1242 hold4
*1243 hold5
*1244 hold6
*1245 hold7
*1246 hold8
*1247 hold9
*1248 input1
*1249 input10
*1250 input11
*1251 input12
*1252 input13
*1253 input14
*1254 input15
*1255 input16
*1256 input17
*1257 input18
*1258 input19
*1259 input2
*1260 input20
*1261 input21
*1262 input22
*1263 input23
*1264 input24
*1265 input25
*1266 input26
*1267 input27
*1268 input28
*1269 input29
*1270 input3
*1271 input30
*1272 input31
*1273 input32
*1274 input33
*1275 input34
*1276 input4
*1277 input5
*1278 input6
*1279 input7
*1280 input8
*1281 input9
*1282 output35

*PORTS
a[0] I
a[10] I
a[11] I
a[12] I
a[13] I
a[14] I
a[15] I
a[16] I
a[17] I
a[18] I
a[19] I
a[1] I
a[20] I
a[21] I
a[22] I
a[23] I
a[24] I
a[25] I
a[26] I
a[27] I
a[28] I
a[29] I
a[2] I
a[30] I
a[31] I
a[3] I
a[4] I
a[5] I
a[6] I
a[7] I
a[8] I
a[9] I
clk I
rst I
x I
y O

*D_NET *3 0.00111071
*CONN
*P a[0] I
*I *1248:A I *D sky130_fd_sc_hd__buf_1
*CAP
1 a[0] 0.000555355
2 *1248:A 0.000555355
3 *1248:A *1251:A 0
*RES
1 a[0] *1248:A 24.5857 
*END

*D_NET *4 0.0010144
*CONN
*P a[10] I
*I *1259:A I *D sky130_fd_sc_hd__buf_1
*CAP
1 a[10] 0.000482875
2 *1259:A 0.000482875
3 *1259:A *1270:A 0
4 *1259:A *1273:A 0
5 *1259:A *280:12 4.86495e-05
*RES
1 a[10] *1259:A 23.3536 
*END

*D_NET *5 0.00118543
*CONN
*P a[11] I
*I *1270:A I *D sky130_fd_sc_hd__buf_1
*CAP
1 a[11] 0.00049218
2 *1270:A 0.00049218
3 *1270:A *1276:A 0
4 *1270:A *291:12 5.62995e-05
5 *1270:A *301:62 0.000144773
6 *1259:A *1270:A 0
*RES
1 a[11] *1270:A 24.175 
*END

*D_NET *6 0.00118185
*CONN
*P a[12] I
*I *1276:A I *D sky130_fd_sc_hd__buf_1
*CAP
1 a[12] 0.00033331
2 *1276:A 0.00033331
3 *1276:A *1277:A 0.00037745
4 *1276:A *291:12 8.25512e-05
5 *1276:A *301:62 5.52238e-05
6 *1270:A *1276:A 0
*RES
1 a[12] *1276:A 23.3536 
*END

*D_NET *7 0.00151602
*CONN
*P a[13] I
*I *1277:A I *D sky130_fd_sc_hd__buf_1
*CAP
1 a[13] 0.000469864
2 *1277:A 0.000469864
3 *1277:A *1278:A 0
4 *1277:A *291:12 5.54655e-05
5 *1277:A *301:62 0.000143375
6 *1276:A *1277:A 0.00037745
*RES
1 a[13] *1277:A 27.5321 
*END

*D_NET *8 0.00116474
*CONN
*P a[14] I
*I *1278:A I *D sky130_fd_sc_hd__buf_1
*CAP
1 a[14] 0.000483205
2 *1278:A 0.000483205
3 *1278:A *1111:B 9.83442e-05
4 *1278:A *1111:C 9.99853e-05
5 *1278:A *1279:A 0
6 *1277:A *1278:A 0
*RES
1 a[14] *1278:A 23.7643 
*END

*D_NET *9 0.00108773
*CONN
*P a[15] I
*I *1279:A I *D sky130_fd_sc_hd__buf_1
*CAP
1 a[15] 0.000487099
2 *1279:A 0.000487099
3 *1279:A *1111:B 5.33005e-05
4 *1279:A *1280:A 0
5 *1279:A *313:10 5.41794e-05
6 *1279:A *324:8 6.05161e-06
7 *1278:A *1279:A 0
*RES
1 a[15] *1279:A 23.3536 
*END

*D_NET *10 0.00103266
*CONN
*P a[16] I
*I *1280:A I *D sky130_fd_sc_hd__buf_1
*CAP
1 a[16] 0.000488713
2 *1280:A 0.000488713
3 *1280:A *1110:A2 0
4 *1280:A *1281:A 0
5 *1280:A *352:8 5.52302e-05
6 *1279:A *1280:A 0
*RES
1 a[16] *1280:A 23.3536 
*END

*D_NET *11 0.00091967
*CONN
*P a[17] I
*I *1281:A I *D sky130_fd_sc_hd__clkbuf_1
*CAP
1 a[17] 0.000457769
2 *1281:A 0.000457769
3 *1281:A *1043:B1 4.1331e-06
4 *1281:A *1249:A 0
5 *1280:A *1281:A 0
*RES
1 a[17] *1281:A 22.8179 
*END

*D_NET *12 0.00118577
*CONN
*P a[18] I
*I *1249:A I *D sky130_fd_sc_hd__clkbuf_1
*CAP
1 a[18] 0.000536618
2 *1249:A 0.000536618
3 *1249:A *1043:A1 0.00010096
4 *1249:A *1043:B1 4.1331e-06
5 *1249:A *1250:A 0
6 *1249:A *270:6 7.43578e-06
7 *1281:A *1249:A 0
*RES
1 a[18] *1249:A 24.3 
*END

*D_NET *13 0.00102621
*CONN
*P a[19] I
*I *1250:A I *D sky130_fd_sc_hd__clkbuf_1
*CAP
1 a[19] 0.000485491
2 *1250:A 0.000485491
3 *1250:A *1043:A1 5.52302e-05
4 *1250:A *1252:A 0
5 *1249:A *1250:A 0
*RES
1 a[19] *1250:A 23.3536 
*END

*D_NET *14 0.00098805
*CONN
*P a[1] I
*I *1251:A I *D sky130_fd_sc_hd__buf_1
*CAP
1 a[1] 0.000478167
2 *1251:A 0.000478167
3 *1251:A *1263:A 0
4 *1251:A *284:14 3.17163e-05
5 *1248:A *1251:A 0
*RES
1 a[1] *1251:A 23.3536 
*END

*D_NET *15 0.0010372
*CONN
*P a[20] I
*I *1252:A I *D sky130_fd_sc_hd__clkbuf_1
*CAP
1 a[20] 0.000490987
2 *1252:A 0.000490987
3 *1252:A *1043:A1 5.52302e-05
4 *1252:A *1253:A 0
5 *1250:A *1252:A 0
*RES
1 a[20] *1252:A 23.3536 
*END

*D_NET *16 0.00122329
*CONN
*P a[21] I
*I *1253:A I *D sky130_fd_sc_hd__buf_1
*CAP
1 a[21] 0.000607925
2 *1253:A 0.000607925
3 *1253:A *1114:A1 7.43578e-06
4 *1253:A *1254:A 0
5 *1253:A *271:10 0
6 *1252:A *1253:A 0
*RES
1 a[21] *1253:A 25.1214 
*END

*D_NET *17 0.00106427
*CONN
*P a[22] I
*I *1254:A I *D sky130_fd_sc_hd__buf_1
*CAP
1 a[22] 0.000517679
2 *1254:A 0.000517679
3 *1254:A *1114:B1 0
4 *1254:A *1255:A 0
5 *1254:A *274:18 2.89114e-05
6 *1253:A *1254:A 0
*RES
1 a[22] *1254:A 23.7643 
*END

*D_NET *18 0.00125798
*CONN
*P a[23] I
*I *1255:A I *D sky130_fd_sc_hd__buf_1
*CAP
1 a[23] 0.000591118
2 *1255:A 0.000591118
3 *1255:A *1256:A 0
4 *1255:A *276:16 7.57394e-05
5 *1254:A *1255:A 0
*RES
1 a[23] *1255:A 25.4071 
*END

*D_NET *19 0.00111036
*CONN
*P a[24] I
*I *1256:A I *D sky130_fd_sc_hd__buf_1
*CAP
1 a[24] 0.000537703
2 *1256:A 0.000537703
3 *1256:A *1099:C 6.05161e-06
4 *1256:A *1257:A 0
5 *1256:A *277:16 2.89016e-05
6 *1255:A *1256:A 0
*RES
1 a[24] *1256:A 24.425 
*END

*D_NET *20 0.00117515
*CONN
*P a[25] I
*I *1257:A I *D sky130_fd_sc_hd__buf_1
*CAP
1 a[25] 0.000558908
2 *1257:A 0.000558908
3 *1257:A *1099:B 5.28345e-05
4 *1257:A *1099:C 4.50349e-06
5 *1257:A *1258:A 0
6 *1256:A *1257:A 0
*RES
1 a[25] *1257:A 24.7107 
*END

*D_NET *21 0.00116422
*CONN
*P a[26] I
*I *1258:A I *D sky130_fd_sc_hd__buf_1
*CAP
1 a[26] 0.000507659
2 *1258:A 0.000507659
3 *1258:A *1099:A 4.1331e-06
4 *1258:A *1099:B 0.000144773
5 *1258:A *1260:A 0
6 *1257:A *1258:A 0
*RES
1 a[26] *1258:A 24.175 
*END

*D_NET *22 0.00103125
*CONN
*P a[27] I
*I *1260:A I *D sky130_fd_sc_hd__buf_1
*CAP
1 a[27] 0.000480383
2 *1260:A 0.000480383
3 *1260:A *1099:B 5.71472e-05
4 *1260:A *1261:A 0
5 *1260:A *285:8 1.33343e-05
6 *1258:A *1260:A 0
*RES
1 a[27] *1260:A 23.3536 
*END

*D_NET *23 0.00111996
*CONN
*P a[28] I
*I *1261:A I *D sky130_fd_sc_hd__buf_1
*CAP
1 a[28] 0.000508531
2 *1261:A 0.000508531
3 *1261:A *1042:B 0
4 *1261:A *1262:A 0
5 *1261:A *1264:A 0.000102901
6 *1260:A *1261:A 0
*RES
1 a[28] *1261:A 23.8893 
*END

*D_NET *24 0.00158966
*CONN
*P a[29] I
*I *1262:A I *D sky130_fd_sc_hd__clkbuf_1
*CAP
1 a[29] 0.000548098
2 *1262:A 0.000548098
3 *1262:A *1041:A1 1.92789e-05
4 *1262:A *1041:A2 2.44318e-05
5 *1262:A *1042:B 0.000263918
6 *1262:A *1264:A 4.35048e-05
7 *1262:A *1265:A 0.000142333
8 *1261:A *1262:A 0
*RES
1 a[29] *1262:A 25.9429 
*END

*D_NET *25 0.0011263
*CONN
*P a[2] I
*I *1263:A I *D sky130_fd_sc_hd__buf_1
*CAP
1 a[2] 0.00053475
2 *1263:A 0.00053475
3 *1263:A *1266:A 0
4 *1263:A *272:16 2.84026e-05
5 *1263:A *284:8 2.84026e-05
6 *1263:A *284:14 0
7 *1251:A *1263:A 0
*RES
1 a[2] *1263:A 24.425 
*END

*D_NET *26 0.00186391
*CONN
*P a[30] I
*I *1264:A I *D sky130_fd_sc_hd__clkbuf_1
*CAP
1 a[30] 0.000858752
2 *1264:A 0.000858752